                                  MODFLOW-NWT-SWR1 
      U.S. GEOLOGICAL SURVEY MODULAR FINITE-DIFFERENCE GROUNDWATER-FLOW MODEL
                            VERSION 1.2.0 03/01/2020
                    BASED ON MODFLOW-2005 VERSION 1.12.00 02/03/2017

 LIST FILE: ./output/Agwater1_high.lst
                         UNIT    9

 OPENING ./input/Agwater1.ba6
 FILE TYPE:BAS6   UNIT   75   STATUS:OLD    
 FORMAT:FORMATTED              ACCESS:SEQUENTIAL          

 OPENING ./input/Agwater1.upw
 FILE TYPE:UPW   UNIT    7   STATUS:OLD    
 FORMAT:FORMATTED              ACCESS:SEQUENTIAL          

 OPENING ./input/Agwater1.dis
 FILE TYPE:DIS   UNIT    8   STATUS:OLD    
 FORMAT:FORMATTED              ACCESS:SEQUENTIAL          

 OPENING ./input/Agwater1.nwt
 FILE TYPE:NWT   UNIT   13   STATUS:OLD    
 FORMAT:FORMATTED              ACCESS:SEQUENTIAL          

 OPENING ./input/Agwater1.oc
 FILE TYPE:OC   UNIT   14   STATUS:OLD    
 FORMAT:FORMATTED              ACCESS:SEQUENTIAL          

 OPENING ./input/Agwater1.sfr
 FILE TYPE:SFR   UNIT   15   STATUS:OLD    
 FORMAT:FORMATTED              ACCESS:SEQUENTIAL          

 OPENING ./input/Agwater1.ghb
 FILE TYPE:GHB   UNIT   17   STATUS:OLD    
 FORMAT:FORMATTED              ACCESS:SEQUENTIAL          

 OPENING ./input/Agwater1.uzf
 FILE TYPE:UZF   UNIT   19   STATUS:OLD    
 FORMAT:FORMATTED              ACCESS:SEQUENTIAL          

 OPENING ./input/Agwater1.gag
 FILE TYPE:GAGE   UNIT   32   STATUS:OLD    
 FORMAT:FORMATTED              ACCESS:SEQUENTIAL          

 OPENING ./input/seg1_high.tab
 FILE TYPE:DATA   UNIT   55   STATUS:UNKNOWN
 FORMAT:FORMATTED              ACCESS:SEQUENTIAL          

 OPENING ./input/seg9.tab
 FILE TYPE:DATA   UNIT   56   STATUS:UNKNOWN
 FORMAT:FORMATTED              ACCESS:SEQUENTIAL          

 OPENING ./input/Agwater1.ag
 FILE TYPE:AG   UNIT   57   STATUS:OLD    
 FORMAT:FORMATTED              ACCESS:SEQUENTIAL          

 OPENING ./output/Agwater1_high.hed
 FILE TYPE:DATA   UNIT   62   STATUS:UNKNOWN
 FORMAT:FORMATTED              ACCESS:SEQUENTIAL          

 OPENING ./output/Agwater1gw_high.ts5
 FILE TYPE:DATA   UNIT  105   STATUS:UNKNOWN
 FORMAT:FORMATTED              ACCESS:SEQUENTIAL          

 OPENING ./output/Agwater1SW_high.ts9
 FILE TYPE:DATA   UNIT  107   STATUS:UNKNOWN
 FORMAT:FORMATTED              ACCESS:SEQUENTIAL          

 OPENING ./output/Agwater1SW_ET_high.ts9
 FILE TYPE:DATA   UNIT  108   STATUS:UNKNOWN
 FORMAT:FORMATTED              ACCESS:SEQUENTIAL          

 OPENING ./output/Agwater1_high.uzfot
 FILE TYPE:DATA(BINARY)   UNIT   61   STATUS:UNKNOWN
 FORMAT:BINARY                 ACCESS:SEQUENTIAL          

 OPENING ./output/Agwater1cbc_high.unf
 FILE TYPE:DATA(BINARY)   UNIT  102   STATUS:UNKNOWN
 FORMAT:BINARY                 ACCESS:SEQUENTIAL          

 OPENING ./output/Agwater1_high.uzf1
 FILE TYPE:DATA   UNIT   65   STATUS:UNKNOWN
 FORMAT:FORMATTED              ACCESS:SEQUENTIAL          

 OPENING ./output/Agwater1_high.uzf2
 FILE TYPE:DATA   UNIT   66   STATUS:UNKNOWN
 FORMAT:FORMATTED              ACCESS:SEQUENTIAL          

 OPENING ./output/Agwater1_high.uzf3
 FILE TYPE:DATA   UNIT   67   STATUS:UNKNOWN
 FORMAT:FORMATTED              ACCESS:SEQUENTIAL          

 OPENING ./output/Agwater1_high.uzf4
 FILE TYPE:DATA   UNIT   68   STATUS:UNKNOWN
 FORMAT:FORMATTED              ACCESS:SEQUENTIAL          

 OPENING ./output/Agwater1_high.flw
 FILE TYPE:DATA   UNIT   81   STATUS:UNKNOWN
 FORMAT:FORMATTED              ACCESS:SEQUENTIAL          

 OPENING ./output/Agwater1_high.sg1
 FILE TYPE:DATA   UNIT   83   STATUS:UNKNOWN
 FORMAT:FORMATTED              ACCESS:SEQUENTIAL          

 OPENING ./output/Agwater1_high.sg2
 FILE TYPE:DATA   UNIT   84   STATUS:UNKNOWN
 FORMAT:FORMATTED              ACCESS:SEQUENTIAL          

 OPENING ./output/Agwater1_high.sg3
 FILE TYPE:DATA   UNIT   85   STATUS:UNKNOWN
 FORMAT:FORMATTED              ACCESS:SEQUENTIAL          

 OPENING ./output/Agwater1_high.sg4
 FILE TYPE:DATA   UNIT   86   STATUS:UNKNOWN
 FORMAT:FORMATTED              ACCESS:SEQUENTIAL          

 OPENING ./output/Agwater1_high.sg5
 FILE TYPE:DATA   UNIT   87   STATUS:UNKNOWN
 FORMAT:FORMATTED              ACCESS:SEQUENTIAL          

 OPENING ./output/Agwater1_high.sg6
 FILE TYPE:DATA   UNIT   88   STATUS:UNKNOWN
 FORMAT:FORMATTED              ACCESS:SEQUENTIAL          

 OPENING ./output/Agwater1_high.sg7
 FILE TYPE:DATA   UNIT   89   STATUS:UNKNOWN
 FORMAT:FORMATTED              ACCESS:SEQUENTIAL          

 OPENING ./output/Agwater1_high.sg8
 FILE TYPE:DATA   UNIT   90   STATUS:UNKNOWN
 FORMAT:FORMATTED              ACCESS:SEQUENTIAL          

 OPENING ./output/Agwater1_high.sg9
 FILE TYPE:DATA   UNIT   91   STATUS:UNKNOWN
 FORMAT:FORMATTED              ACCESS:SEQUENTIAL          

 BAS -- BASIC PACKAGE, VERSION 1.1.4, 4/01/2018 INPUT READ FROM UNIT   75
 
 MODFLOW was compiled using mixed precision
 Precision of REAL variables:           6
 Precision of DOUBLE PRECISION variables:          15

 DISCRETIZATION INPUT DATA READ FROM UNIT    8
 #Test problem 2-- Discretization input
 #Example problem using the UZF1 Package
    1 LAYERS        15 ROWS        10 COLUMNS
   49 STRESS PERIOD(S) IN SIMULATION
 MODEL TIME UNIT IS SECONDS
 MODEL LENGTH UNIT IS FEET
  Confining bed flag for each layer:
   0

                     DELR =   5000.00    

                     DELC =   5000.00    



           TOP ELEVATION OF LAYER 1
 READING ON UNIT    8 WITH FORMAT: (10F7.0)            

            1           2           3           4           5           6           7           8           9          10
 ........................................................................................................................
   1    1105.       1105.       0.000       0.000       0.000       0.000       0.000       0.000       0.000       0.000    
   2    1105.       1095.       1105.       0.000       0.000       1100.       1100.       1110.       0.000       0.000    
   3    0.000       1100.       1085.       1080.       1078.       1076.       1073.       1090.       0.000       0.000    
   4    1110.       1100.       1090.       1085.       1076.       1080.       1080.       1070.       1100.       0.000    
   5    1110.       1100.       1085.       1080.       1078.       1074.       1077.       1066.       1075.       1080.    
   6    1105.       1095.       1080.       1077.       1073.       1069.       1070.       1063.       1085.       1095.    
   7    1105.       1090.       1075.       1072.       1070.       1065.       1065.       1069.       1090.       0.000    
   8    0.000       1080.       1070.       1068.       1063.       1060.       1063.       1067.       1090.       0.000    
   9    0.000       1075.       1065.       1062.       1058.       1052.       1055.       1065.       1090.       0.000    
  10    0.000       1070.       1060.       1055.       1046.       1046.       1044.       1060.       1088.       1100.    
  11    0.000       1055.       1050.       1045.       1041.       1042.       1040.       1050.       1075.       0.000    
  12    1027.       1028.       1028.       1032.       1032.       1033.       1032.       1040.       1060.       0.000    
  13    997.0       1004.       1008.       1014.       1020.       1027.       1032.       1038.       1050.       0.000    
  14    0.000       1030.       1040.       1045.       1050.       1050.       1050.       1050.       1044.       0.000    
  15    0.000       0.000       1080.       1080.       1080.       1080.       0.000       0.000       0.000       0.000    



             MODEL LAYER BOTTOM EL. FOR LAYER   1
 READING ON UNIT    8 WITH FORMAT: (10F7.0)            

            1           2           3           4           5           6           7           8           9          10
 ........................................................................................................................
   1    1000.       1000.       0.000       0.000       0.000       0.000       0.000       0.000       0.000       0.000    
   2    1000.       900.0       900.0       0.000       0.000       950.0       950.0       950.0       0.000       0.000    
   3    0.000       850.0       670.0       680.0       680.0       770.0       770.0       890.0       0.000       0.000    
   4    925.0       850.0       650.0       650.0       650.0       680.0       740.0       850.0       950.0       0.000    
   5    925.0       800.0       650.0       600.0       600.0       600.0       650.0       720.0       850.0       950.0    
   6    925.0       800.0       650.0       600.0       550.0       600.0       650.0       720.0       850.0       970.0    
   7    925.0       800.0       650.0       600.0       550.0       600.0       650.0       720.0       950.0       0.000    
   8    0.000       850.0       700.0       650.0       570.0       600.0       700.0       850.0       950.0       0.000    
   9    0.000       850.0       700.0       650.0       540.0       580.0       700.0       850.0       950.0       0.000    
  10    0.000       850.0       700.0       630.0       530.0       580.0       650.0       800.0       900.0       950.0    
  11    0.000       850.0       700.0       620.0       580.0       620.0       700.0       800.0       900.0       0.000    
  12    900.0       830.0       710.0       640.0       600.0       650.0       700.0       800.0       900.0       0.000    
  13    900.0       810.0       750.0       700.0       650.0       700.0       750.0       800.0       900.0       0.000    
  14    0.000       950.0       850.0       850.0       850.0       850.0       850.0       850.0       850.0       0.000    
  15    0.000       0.000       950.0       950.0       950.0       950.0       0.000       0.000       0.000       0.000    


 STRESS PERIOD     LENGTH       TIME STEPS     MULTIPLIER FOR DELT    SS FLAG
 ----------------------------------------------------------------------------
        1         86400.00          1                    1.000         SS
        2         2630000.         30                    1.000         TR
        3         2630000.         30                    1.000         TR
        4         2630000.         30                    1.000         TR
        5         2630000.         30                    1.000         TR
        6         2630000.         30                    1.000         TR
        7         2630000.         30                    1.000         TR
        8         2630000.         30                    1.000         TR
        9         2630000.         30                    1.000         TR
       10         2630000.         30                    1.000         TR
       11         2630000.         30                    1.000         TR
       12         2630000.         30                    1.000         TR
       13         2630000.         30                    1.000         TR
       14         2630000.         30                    1.000         TR
       15         2630000.         30                    1.000         TR
       16         2630000.         30                    1.000         TR
       17         2630000.         30                    1.000         TR
       18         2630000.         30                    1.000         TR
       19         2630000.         30                    1.000         TR
       20         2630000.         30                    1.000         TR
       21         2630000.         30                    1.000         TR
       22         2630000.         30                    1.000         TR
       23         2630000.         30                    1.000         TR
       24         2630000.         30                    1.000         TR
       25         2630000.         30                    1.000         TR
       26         2630000.         30                    1.000         TR
       27         2630000.         30                    1.000         TR
       28         2630000.         30                    1.000         TR
       29         2630000.         30                    1.000         TR
       30         2630000.         30                    1.000         TR
       31         2630000.         30                    1.000         TR
       32         2630000.         30                    1.000         TR
       33         2630000.         30                    1.000         TR
       34         2630000.         30                    1.000         TR
       35         2630000.         30                    1.000         TR
       36         2630000.         30                    1.000         TR
       37         2630000.         30                    1.000         TR
       38         2630000.         30                    1.000         TR
       39         2630000.         30                    1.000         TR
       40         2630000.         30                    1.000         TR
       41         2630000.         30                    1.000         TR
       42         2630000.         30                    1.000         TR
       43         2630000.         30                    1.000         TR
       44         2630000.         30                    1.000         TR
       45         2630000.         30                    1.000         TR
       46         2630000.         30                    1.000         TR
       47         2630000.         30                    1.000         TR
       48         2630000.         30                    1.000         TR
       49         2630000.         30                    1.000         TR

 COMBINED STEADY-STATE AND TRANSIENT SIMULATION



 
 #Test Simulation 2-- Example problem using the UZF1 Package                     
 #Modified from example Problem 1 of SFR1 documentation report                   
 THE FREE FORMAT OPTION HAS BEEN SELECTED



                     BOUNDARY ARRAY FOR LAYER   1
 READING ON UNIT   75 WITH FORMAT: (20I4)              

                1           2           3           4           5           6           7           8           9          10
 ............................................................................................................................
   1            1           1           0           0           0           0           0           0           0           0
   2            1           1           1           0           0           1           1           1           0           0
   3            0           1           1           1           1           1           1           1           0           0
   4            1           1           1           1           1           1           1           1           1           0
   5            1           1           1           1           1           1           1           1           1           1
   6            1           1           1           1           1           1           1           1           1           1
   7            1           1           1           1           1           1           1           1           1           0
   8            0           1           1           1           1           1           1           1           1           0
   9            0           1           1           1           1           1           1           1           1           0
  10            0           1           1           1           1           1           1           1           1           1
  11            0           1           1           1           1           1           1           1           1           0
  12            1           1           1           1           1           1           1           1           1           0
  13            1           1           1           1           1           1           1           1           1           0
  14            0           1           1           1           1           1           1           1           1           0
  15            0           0           1           1           1           1           0           0           0           0

 AQUIFER HEAD WILL BE SET TO   6999.0     AT ALL NO-FLOW NODES (IBOUND=0).



                       INITIAL HEAD FOR LAYER   1
 READING ON UNIT   75 WITH FORMAT: (10F8.0)            

            1           2           3           4           5           6           7           8           9          10
 ........................................................................................................................
   1    1093.       1089.       6999.       6999.       6999.       6999.       6999.       6999.       6999.       6999.    
   2    1090.       1087.       1081.       6999.       6999.       1072.       1071.       1071.       6999.       6999.    
   3    6999.       1079.       1078.       1074.       1072.       1071.       1069.       1068.       6999.       6999.    
   4    1069.       1071.       1070.       1067.       1065.       1064.       1064.       1066.       1066.       6999.    
   5    1065.       1064.       1063.       1062.       1061.       1061.       1060.       1062.       1066.       1068.    
   6    1060.       1058.       1057.       1056.       1056.       1057.       1057.       1059.       1062.       1066.    
   7    1056.       1053.       1052.       1051.       1051.       1052.       1053.       1055.       1056.       6999.    
   8    6999.       1046.       1046.       1046.       1046.       1046.       1048.       1050.       1050.       6999.    
   9    6999.       1039.       1039.       1039.       1040.       1041.       1042.       1043.       1044.       6999.    
  10    6999.       1031.       1032.       1033.       1034.       1035.       1037.       1038.       1039.       1042.    
  11    6999.       1021.       1023.       1027.       1029.       1030.       1032.       1034.       1036.       6999.    
  12    1001.       1009.       1015.       1020.       1023.       1026.       1029.       1030.       1034.       6999.    
  13    994.5      1000.0       1007.       1013.       1019.       1024.       1029.       1034.       1036.       6999.    
  14    6999.       1004.       1009.       1014.       1019.       1024.       1029.       1035.       1039.       6999.    
  15    6999.       6999.       1012.       1015.       1019.       1022.       6999.       6999.       6999.       6999.    

 OUTPUT CONTROL IS SPECIFIED ONLY AT TIME STEPS FOR WHICH OUTPUT IS DESIRED
 HEADS WILL BE SAVED WITH FORMAT: (10F10.3)           
 SAVED HEADS WILL BE LABELED
 COMPACT CELL-BY-CELL BUDGET FILES WILL BE WRITTEN
 HEAD PRINT FORMAT CODE IS   4    DRAWDOWN PRINT FORMAT CODE IS   0
 HEADS WILL BE SAVED ON UNIT   62    DRAWDOWNS WILL BE SAVED ON UNIT    0
 # NWT Input File
 # Test Problem 3 for MODFLOW-NWT
 #HEADTOL  FLUXTOL MAXITEROUT THICKFACT LINMETH IPRNWT IBOTAV OPTIONS DBDREDUCE DBDINCREASE DBDGAMMA MOMFACT BACKFLAG MAXBACKITER BACKTOL BACKREDUCE

 NWT1 -- Newton Solver, VERSION 1.1.4, 4/01/2018
         INPUT READ FROM UNIT 13

 SPECIFIED OPTION:
 SOLVER INPUT VALUES ARE SPECIFIED BY USER
 ***XMD linear solver will be used***
 
   CONVERGENCE CRITERION OF   0.100000E-03 FOR HEAD SOLUTION
   AND A TOLERANCE OF   0.100000E+01 FOR FLOW SOLUTION AND 
   A MAXIMUM OF   500 OUTER ITERATIONS. 


   D-B-D REDUCTION FACTOR OF    0.970000E+00 AND 
   A D-B-D INCREASE FACTOR OF    0.100000E-04 AND 
   A D-B-D RELAXATION OF    0.000000E+00 AND 
   A MOMENTUM FACTOR OF    0.100000E+00 .


 ***BACKTRACKING IS INACTIVE***
 XMD -- LINEAR SOLUTION BY XMD PACKAGE VERSION 1.30
     BY MOTOMU IBARAKI, OHIO STATE UNIVERSITY, COLOMBUS, OH
                 INPUT READ FROM UNIT 13
 ACCELERATION METHOD                    (IACL) =         1
 NODE ORDERING FLAG                   (NORDER) =         0
 LEVEL OF FILL                         (LEVEL) =         7
 MAXIMUM NUMBER OF ORTHOGONALIZATIONS  (NORTH) =         7
 INDEX FOR USING REDUCED SYSTEM      (IREDSYS) =         1
 RESID. REDUCTION CONVERGE CRITERION  (RRCTOL) =  0.000000E+00
 INDEX FOR USING DROP TOLERANCE     (IDROPTOL) =         1
 DROP TOLERANCE VALUE                  (EPSRN) =  0.500000E-02
 CONVERGENCE CRITERIA OF           (HCLOSEXMD) =  0.100000E-03
 MAX. NUMBER OF LINEAR ITERATIONS  (MXITERXMD) =        50


 UPW1 -- UPSTREAM WEIGHTING FLOW PACKAGE, VERSION 1.1.4, 4/01/2018
         INPUT READ FROM UNIT  7

 #Layer-Property Flow Package input for test simulation 2
 CELL-BY-CELL FLOWS WILL BE SAVED ON UNIT  102
 No named parameters

   LAYER FLAGS:
 LAYER       LAYTYP          LAYAVG    CHANI           LAYVKA           LAYWET
 ---------------------------------------------------------------------------
    1             1             0     1.000E+00             0             0

   INTERPRETATION OF LAYER FLAGS:
                        INTERBLOCK     HORIZONTAL    DATA IN
         LAYER TYPE   TRANSMISSIVITY   ANISOTROPY   ARRAY VKA   WETTABILITY
 LAYER   (LAYTYP)        (LAYAVG)      (CHANI)     (LAYVKA)       (LAYWET)
 ---------------------------------------------------------------------------
    1   CONVERTIBLE      HARMONIC     1.000E+00    VERTICAL K  NON-WETTABLE



              HYD. COND. ALONG ROWS FOR LAYER   1
 READING ON UNIT    7 WITH FORMAT: (10F5.0)            

            1           2           3           4           5           6           7           8           9          10
 ........................................................................................................................
   1   2.0000E-03  2.0000E-03   0.000       0.000       0.000       0.000       0.000       0.000       0.000       0.000    
   2   4.0000E-04  2.0000E-03  2.0000E-03   0.000       0.000      4.0000E-04  4.0000E-04  4.0000E-04   0.000       0.000    
   3    0.000      4.0000E-04  2.0000E-03  2.0000E-03  4.0000E-04  4.0000E-04  4.0000E-04  4.0000E-04   0.000       0.000    
   4   4.0000E-04  4.0000E-04  4.0000E-04  2.0000E-03  2.0000E-03  2.0000E-03  4.0000E-04  4.0000E-04  4.0000E-04   0.000    
   5   4.0000E-04  4.0000E-04  4.0000E-04  2.0000E-03  2.0000E-03  2.0000E-03  2.0000E-03  2.0000E-03  2.0000E-03  2.0000E-03
   6   4.0000E-04  4.0000E-04  4.0000E-04  2.0000E-03  2.0000E-03  2.0000E-03  2.0000E-03  2.0000E-03  4.0000E-04  4.0000E-04
   7   4.0000E-04  4.0000E-04  4.0000E-04  2.0000E-03  2.0000E-03  2.0000E-03  2.0000E-03  2.0000E-03  4.0000E-04   0.000    
   8    0.000      4.0000E-04  4.0000E-04  2.0000E-03  2.0000E-03  2.0000E-03  2.0000E-03  4.0000E-04  4.0000E-04   0.000    
   9    0.000      4.0000E-04  4.0000E-04  2.0000E-03  2.0000E-03  2.0000E-03  2.0000E-03  4.0000E-04  4.0000E-04   0.000    
  10    0.000      4.0000E-04  4.0000E-04  2.0000E-03  2.0000E-03  2.0000E-03  2.0000E-03  4.0000E-04  4.0000E-04  4.0000E-04
  11    0.000      4.0000E-04  4.0000E-04  2.0000E-03  2.0000E-03  2.0000E-03  2.0000E-03  4.0000E-04  4.0000E-04   0.000    
  12   4.0000E-04  4.0000E-04  2.0000E-03  2.0000E-03  2.0000E-03  2.0000E-03  2.0000E-03  4.0000E-04  4.0000E-04   0.000    
  13   2.0000E-03  2.0000E-03  2.0000E-03  2.0000E-03  2.0000E-03  2.0000E-03  2.0000E-03  2.0000E-03  2.0000E-03   0.000    
  14    0.000      4.0000E-04  4.0000E-04  4.0000E-04  4.0000E-04  4.0000E-04  4.0000E-04  4.0000E-04  2.0000E-03   0.000    
  15    0.000       0.000      4.0000E-04  4.0000E-04  4.0000E-04  4.0000E-04   0.000       0.000       0.000       0.000    

      VERTICAL HYD. COND. =  1.000000E-06 FOR LAYER   1

         SPECIFIC STORAGE =  1.000000E-06 FOR LAYER   1



                     SPECIFIC YIELD FOR LAYER   1
 READING ON UNIT    7 WITH FORMAT: (10F5.0)            

            1           2           3           4           5           6           7           8           9          10
 ........................................................................................................................
   1   0.2000      0.2000       0.000       0.000       0.000       0.000       0.000       0.000       0.000       0.000    
   2   0.1000      0.2000      0.2000       0.000       0.000      0.1000      0.1000      0.1000       0.000       0.000    
   3    0.000      0.1000      0.2000      0.2000      0.1000      0.1000      0.1000      0.1000       0.000       0.000    
   4   0.1000      0.1000      0.1000      0.2000      0.2000      0.2000      0.1000      0.1000      0.1000       0.000    
   5   0.1000      0.1000      0.1000      0.2000      0.2000      0.2000      0.2000      0.2000      0.2000      0.2000    
   6   0.1000      0.1000      0.1000      0.2000      0.2000      0.2000      0.2000      0.2000      0.1000      0.1000    
   7   0.1000      0.1000      0.1000      0.2000      0.2000      0.2000      0.2000      0.2000      0.1000       0.000    
   8    0.000      0.1000      0.1000      0.2000      0.2000      0.2000      0.2000      0.1000      0.1000       0.000    
   9    0.000      0.1000      0.1000      0.2000      0.2000      0.2000      0.2000      0.1000      0.1000       0.000    
  10    0.000      0.1000      0.1000      0.2000      0.2000      0.2000      0.2000      0.1000      0.1000      0.1000    
  11    0.000      0.1000      0.1000      0.2000      0.2000      0.2000      0.2000      0.1000      0.1000       0.000    
  12   0.1000      0.1000      0.2000      0.2000      0.2000      0.2000      0.2000      0.1000      0.1000       0.000    
  13   0.2000      0.2000      0.2000      0.2000      0.2000      0.2000      0.2000      0.2000      0.2000       0.000    
  14    0.000      0.1000      0.1000      0.1000      0.1000      0.1000      0.1000      0.1000      0.2000       0.000    
  15    0.000       0.000      0.1000      0.1000      0.1000      0.1000       0.000       0.000       0.000       0.000    

 GHB -- GENERAL-HEAD BOUNDARY PACKAGE, VERSION 7, 5/2/2005
         INPUT READ FROM UNIT   17
 No named parameters
 MAXIMUM OF      2 ACTIVE GHB CELLS AT ONE TIME
 CELL-BY-CELL FLOWS WILL BE PRINTED WHEN ICBCFL NOT 0


     0 GHB parameters

 SFR7 -- STREAMFLOW ROUTING PACKAGE, VERSION 1.0.5, 2012-04-05
         INPUT READ FROM UNIT  15
 #SFR2 Package input for Testing supplimental pumping and irrigation
 No named parameters

 PROCESSING SFR2 OPTIONS
 
          2 Specified inflow files will be read with a maximum of       1446 row entries per file
 
Stream loss will be calculated as a factor of the streambed hydraulic conductivity. Multiplication factor is equal to     0.1000000015E+00

 END PROCESSING SFR2 OPTIONS
 


 NUMBER OF STREAM REACHES IS   38

 NUMBER OF STREAM SEGMENTS IS    9

 NUMBER OF STREAM PARAMETERS IS    0

 NUMBER OF STREAM SEGMENTS DEFINED USING PARAMETERS IS              0

 MAXIMUM ERROR FOR STREAM LEAKAGE RATES IS  1.00E-06

 CONSTANT FOR MANNINGS EQUATION IS  1.4860E+00



 STREAM OUTPUT WILL BE WRITTEN TO FILE ON UNIT   81


   STREAM NETWORK DESCRIPTION: 

   LAYER    ROW    COL   SEGMENT   REACH     LENGTH
                          NUMBER   NUMBER    IN CELL        
   --------------------------------------------------
      1      1      1       1        1    4.5000E+03
      1      2      2       1        2    7.0000E+03
      1      3      3       1        3    6.0000E+03
      1      3      4       1        4    5.5500E+03
      1      4      5       2        1    6.5000E+03
      1      5      6       2        2    5.0000E+03
      1      6      6       2        3    5.0000E+03
      1      7      6       2        4    5.0000E+03
      1      8      6       2        5    5.0000E+03
      1      3      5       3        1    5.0000E+03
      1      3      6       3        2    5.0000E+03
      1      3      7       3        3    4.5000E+03
      1      4      8       3        4    6.0000E+03
      1      5      8       3        5    5.0000E+03
      1      6      8       3        6    2.0000E+03
      1      5     10       4        1    2.5000E+03
      1      5      9       4        2    5.0000E+03
      1      6      8       4        3    3.5000E+03
      1      6      8       5        1    4.0000E+03
      1      7      7       5        2    5.0000E+03
      1      8      7       5        3    3.5000E+03
      1      8      6       5        4    2.5000E+03
      1      9      6       6        1    5.0000E+03
      1     10      7       6        2    5.0000E+03
      1     11      7       6        3    5.0000E+03
      1     12      7       6        4    5.0000E+03
      1     13      7       6        5    2.0000E+03
      1     14      9       7        1    5.0000E+03
      1     13      8       7        2    5.5000E+03
      1     13      7       7        3    5.0000E+03
      1     13      6       8        1    5.0000E+03
      1     13      5       8        2    5.0000E+03
      1     13      4       8        3    5.0000E+03
      1     13      3       8        4    5.0000E+03
      1     13      2       8        5    5.0000E+03
      1     13      1       8        6    3.0000E+03
      1      8      6       9        1    3.0000E+03
      1      8      5       9        2    3.0000E+03




 UZF1 -- UNSATURATED FLOW PACKAGE, VERSION 1.5, 09/10/2019
         INPUT READ FROM UNIT 19
 #UZF Package input for test simulation 2
 No named parameters

 PROCESSING UZF OPTIONS
 
 
 INITIAL WATER CONTENT (THTI) WILL BE 
READ FOR THE FIRST SS OR TR STRESS PERIOD
 
 
 RESIDUAL WATER CONTENT (THTR) WILL BE 
READ AND USED FOR THE FIRST TRANSIENT STRESS 
PERIOD
 
 
AIR ENTRY PRESSURE AND ROOT PRESSURE WILL BE 
SPECIFIED BY USER AND UZ ET WILL BE SIMULATED 
AS PRESSURE-HEAD DEPENDENT
 
 
INFILTRATION WILL BE REJECTED USING 
LAND SURFACE K
 
 
HYDRAULIC CONDUCTIVITY OF LAND SURFACE 
WILL BE READ
 

 END PROCESSING UZF OPTIONS



            AREAL EXTENT OF UZ FLOW
 READING ON UNIT   19 WITH FORMAT: (20I4)              

                1           2           3           4           5           6           7           8           9          10
 ............................................................................................................................
   1            1           1           0           0           0           0           0           0           0           0
   2            1           1           1           0           0           1           1           1           0           0
   3            0           1           1           1           1           1           1           1           0           0
   4            1           1           1           1           1           1           1           1           1           0
   5            1           1           1           1           1           1           1           1           1           1
   6            1           1           1           1           1           1           1           1           1           1
   7            1           1           1           1           1           1           1           1           1           0
   8            0           1           1           1           1           1           1           1           1           0
   9            0           1           1           1           1           1           1           1           1           0
  10            0           1           1           1           1           1           1           1           1           1
  11            0           1           1           1           1           1           1           1           1           0
  12            1           1           1           1           1           1           1           1           1           0
  13            1           1           1           1           1           1           1           1           1           0
  14            0           1           1           1           1           1           1           1           1           0
  15            0           0           1           1           1           1           0           0           0           0
 OPTION 1 -- RECHARGE IN UZF TO TOP LAYER ONLY 



            ROUTING OVERLAND RUNOFF
 READING ON UNIT   19 WITH FORMAT: (20I4)              

                1           2           3           4           5           6           7           8           9          10
 ............................................................................................................................
   1            1           1           0           0           0           0           0           0           0           0
   2            1           1           1           0           0           3           3           3           0           0
   3            0           1           1           1           3           3           3           3           0           0
   4            8           8           2           2           2           2           2           3           3           0
   5            8           8           8           8           2           2           2           3           4           4
   6            8           8           8           8           8           2           2           4           4           4
   7            8           8           8           8           8           2           5           5           5           0
   8            0           8           8           8           8           2           5           5           5           0
   9            0           8           8           8           8           6           6           6           6           0
  10            0           8           8           8           8           6           6           6           6           6
  11            0           8           8           8           8           8           6           6           7           0
  12            8           8           8           8           8           8           6           7           7           0
  13            8           8           8           8           8           8           7           7           7           0
  14            0           8           8           8           8           8           7           7           7           0
  15            0           0           8           8           8           8           0           0           0           0



               SATURATED VERTICAL K
 READING ON UNIT   19 WITH FORMAT: (10F4.0)            

            1           2           3           4           5           6           7           8           9          10
 ........................................................................................................................
   1   4.6000E-05  4.6000E-05   0.000       0.000       0.000       0.000       0.000       0.000       0.000       0.000    
   2   4.6000E-05  4.6000E-05  4.6000E-05   0.000       0.000      4.6000E-05  4.6000E-05  4.6000E-05   0.000       0.000    
   3    0.000      4.6000E-05  4.6000E-05  4.6000E-05  4.6000E-05  4.6000E-05  4.6000E-05  4.6000E-05   0.000       0.000    
   4   4.6000E-05  4.6000E-05  4.6000E-05  4.6000E-05  4.6000E-05  4.6000E-05  4.6000E-05  4.6000E-05  4.6000E-05   0.000    
   5   4.6000E-05  4.6000E-05  4.6000E-05  4.6000E-05  4.6000E-05  4.6000E-05  4.6000E-05  4.6000E-05  4.6000E-05  4.6000E-05
   6   4.6000E-05  4.6000E-05  4.6000E-05  4.6000E-05  4.6000E-05  4.6000E-05  4.6000E-05  4.6000E-05  4.6000E-05  4.6000E-05
   7   4.6000E-05  4.6000E-05  4.6000E-05  4.6000E-05  4.6000E-05  4.6000E-05  4.6000E-05  4.6000E-05  4.6000E-05   0.000    
   8    0.000      4.6000E-05  4.6000E-05  4.6000E-05  4.6000E-05  4.6000E-05  4.6000E-05  4.6000E-05  4.6000E-05   0.000    
   9    0.000      4.6000E-05  4.6000E-05  4.6000E-05  4.6000E-05  4.6000E-05  4.6000E-05  4.6000E-05  4.6000E-05   0.000    
  10    0.000      4.6000E-05  4.6000E-05  4.6000E-05  4.6000E-05  4.6000E-05  4.6000E-05  4.6000E-05  4.6000E-05  4.6000E-05
  11    0.000      4.6000E-05  4.6000E-05  4.6000E-05  4.6000E-05  4.6000E-05  4.6000E-05  4.6000E-05  4.6000E-05   0.000    
  12   4.6000E-05  4.6000E-05  4.6000E-05  4.6000E-05  4.6000E-05  4.6000E-05  4.6000E-05  4.6000E-05  4.6000E-05   0.000    
  13   4.6000E-05  4.6000E-05  4.6000E-05  4.6000E-05  4.6000E-05  4.6000E-05  4.6000E-05  4.6000E-05  4.6000E-05   0.000    
  14    0.000      4.6000E-05  4.6000E-05  4.6000E-05  4.6000E-05  4.6000E-05  4.6000E-05  4.6000E-05  4.6000E-05   0.000    
  15    0.000       0.000      4.6000E-05  4.6000E-05  4.6000E-05  4.6000E-05   0.000       0.000       0.000       0.000    



            LAND SURFACE VERTICAL K
 READING ON UNIT   19 WITH FORMAT: (10F4.0)            

            1           2           3           4           5           6           7           8           9          10
 ........................................................................................................................
   1   1.0000E-05  1.0000E-05   0.000       0.000       0.000       0.000       0.000       0.000       0.000       0.000    
   2   1.0000E-05  1.0000E-05  1.0000E-05   0.000       0.000      1.0000E-05  1.0000E-05  1.0000E-05   0.000       0.000    
   3    0.000      1.0000E-05  1.0000E-05  1.0000E-05  1.0000E-05  1.0000E-05  1.0000E-05  1.0000E-05   0.000       0.000    
   4   1.0000E-05  1.0000E-05  1.0000E-05  1.0000E-05  1.0000E-05  1.0000E-05  1.0000E-05  1.0000E-05  1.0000E-05   0.000    
   5   1.0000E-05  1.0000E-05  1.0000E-05  1.0000E-05  1.0000E-05  1.0000E-05  1.0000E-05  1.0000E-05  1.0000E-05  1.0000E-05
   6   1.0000E-05  1.0000E-05  1.0000E-05  1.0000E-05  1.0000E-05  1.0000E-05  1.0000E-05  1.0000E-05  1.0000E-05  1.0000E-05
   7   1.0000E-05  1.0000E-05  1.0000E-05  1.0000E-05  1.0000E-05  1.0000E-05  1.0000E-05  1.0000E-05  1.0000E-05   0.000    
   8    0.000      1.0000E-05  1.0000E-05  1.0000E-05  1.0000E-05  1.0000E-05  1.0000E-05  1.0000E-05  1.0000E-05   0.000    
   9    0.000      1.0000E-05  1.0000E-05  1.0000E-05  1.0000E-05  1.0000E-05  1.0000E-05  1.0000E-05  1.0000E-05   0.000    
  10    0.000      1.0000E-05  1.0000E-05  1.0000E-05  1.0000E-05  1.0000E-05  1.0000E-05  1.0000E-05  1.0000E-05  1.0000E-05
  11    0.000      1.0000E-05  1.0000E-05  1.0000E-05  1.0000E-05  1.0000E-05  1.0000E-05  1.0000E-05  1.0000E-05   0.000    
  12   1.0000E-05  1.0000E-05  1.0000E-05  1.0000E-05  1.0000E-05  1.0000E-05  1.0000E-05  1.0000E-05  1.0000E-05   0.000    
  13   1.0000E-05  1.0000E-05  1.0000E-05  1.0000E-05  1.0000E-05  1.0000E-05  1.0000E-05  1.0000E-05  1.0000E-05   0.000    
  14    0.000      1.0000E-05  1.0000E-05  1.0000E-05  1.0000E-05  1.0000E-05  1.0000E-05  1.0000E-05  1.0000E-05   0.000    
  15    0.000       0.000      1.0000E-05  1.0000E-05  1.0000E-05  1.0000E-05   0.000       0.000       0.000       0.000    

     BROOKS-COREY EPSILON =   7.50000    

  SATURATED WATER CONTENT =  0.380000    

   RESIDUAL WATER CONTENT =  0.200000    

    INITIAL WATER CONTENT =  0.200000    

UNSATURATED FLOW RESULTS WILL BE PRINTED TO SEPARATE FILES FOR SELECTED MODEL CELLS, AND TIME STEPS AS DEFINED BY OUTPUT CONTROL PACKAGE 

SELECTED MODEL CELLS ARE: 
 ROW NUMBER  COLUMN NUMBER  FORTRAN UNIT NUMBER  OUTPUT OPTION


       6             4                 65                 1
       6             5                 66                 2
       8             4                 67                 3
       0             0                 68                 4



   9 GAGING STATIONS WERE SPECIFIED.
     (Lakes are identified by a negative value of the Lake Number)
     RECORDS WILL BE WRITTEN TO SEPARATE OUTPUT FILES REPRESENTED BY FOLLOWING UNIT NUMBERS:

 Stream Gages:
  GAGE #   SEGMENT   REACH   UNIT   OUTTYPE
       1       1       4      83       1
       2       2       5      84       1
       3       3       5      85       1
       4       4       3      86       1
       5       5       4      87       4
       6       6       5      88       4
       7       7       3      89       4
       8       8       6      90       4
       9       9       1      91       5





 AG -- AG PACKAGE FOR NWT VERSION 1.1.3,  8/01/2017 INPUT READ FROM UNIT   57
 # AG options

 PROCESSING AG OPTIONS
 
 AGRICULTURAL DEMANDS WILL BE CALCULATED USING ET DEFICIT
 
 
 OPTION TO APPLY SURFACE WATER AS IRRIGATION IS ACTIVE. DIVERTED SURFACE WATER WILL BE APPLIED TO          1 CELLS/RHUS.
 
 
 OPTION TO PUMP SUPPLEMENTARY WATER FOR SURFACE DIVERSION SHORTFALL IS ACTIVATED.  A TOTAL OF             6 SUPPLEMENTAL WELLS ARE ACTIVE
 
 
 OPTION TO APPLY PUMPED WATER AS IRRIGATION IS ACTIVE. PUMPED IRRIGATION WATER WILL BE APPLIED TO          6 CELLS/RHUS.
 
 
 THE MAXIMUM NUMBER OF WELLS FOR SUPPLEMENTING DIVERSIONS OR APPLYING IRRIGATION IS          6 WELLS.
 
 
  UNFORMATTED CELL BY CELL RATES FOR SUP AND IRR WELLS WILL BE SAVED TO FILE UNIT NUMBER         -2
 
 
  UNFORMATTED CELL BY CELL RATES FOR SUP AND IRR WELLS WILL BE SAVED TO FILE UNIT NUMBER         -2
 
 
  UNFORMATTED CELL BY CELL RATES FOR SUP AND IRR WELLS WILL BE SAVED TO FILE UNIT NUMBER         -2
 
 
  UNFORMATTED CELL BY CELL RATES FOR SUP AND IRR WELLS WILL BE SAVED TO FILE UNIT NUMBER         -2
 
 
  GROUND WATER IRRIGATION, POTENTIAL AND ACTUAL ET WILL BE SAVED TO TIMES SERIES OUTPUT FILES.
 
 
  SURFACE WATER IRRIGATION, POTENTIAL AND ACTUAL ET WILL BE SAVED TO TIMES SERIES OUTPUT FILES.
 
 
  SURFACE WATER IRRIGATION, POTENTIAL AND ACTUAL ET WILL BE SAVED TO TIMES SERIES OUTPUT FILES.
 

 END PROCESSING AG OPTIONS
 # AG time series

 PROCESSING TIME SERIES

 FINISHED READING TIME SERIES
 A total number of          1 AG output time series files were activated for SURFACE WATER 
 A total number of          1 AG output time series files were activated for GROUNDWATER 
 A total number of          1 AG output time series files were activated for SURFACE WATER ET
 A total number of          0 AG output time series files were activated for GROUNDWATER ET
1
                            STRESS PERIOD NO.    1, LENGTH =   86400.00    
                            -----------------------------------------------

                              NUMBER OF TIME STEPS =     1

                               MULTIPLIER FOR DELT =     1.000

                            INITIAL TIME STEP SIZE =   86400.00    

 BOUND. NO. LAYER   ROW   COL     STAGE      CONDUCTANCE         
 ----------------------------------------------------------------
      1      1     13      1       988.0          0.3800E-01
      2      1     14      9       1045.          0.3800E-01

      2 GHB CELLS



 CLASSIFICATION & COUNT OF STREAM SEGMENTS BASED ON SOURCE OF INFLOW:

                HEADWATER     DIVERSION     RECEIVES TRIBUTARY FLOW
                ---------     ---------     -----------------------
                     3              2               4



                    INPUT DATA FOR EACH STREAM SEGMENT
 ---------------------------------------------------------------------------------------------

 SEGMENT    SEG.     INFLOW   OVERLAND   STREAM    STREAM   ICALC  OUTFLOW  DIVERSION PRIORITY
    NO.    LENGTH     RATE     RUNOFF      ET       PPT.    METH.  TO SEG.  FROM SEG.    NO.

      1  2.305E+04 2.500E+01 0.000E+00 0.000E+00 0.000E+00    4        2        0        0
      2  2.650E+04 0.000E+00 0.000E+00 0.000E+00 0.000E+00    1        6        0        0
      3  2.750E+04 2.000E+00 0.000E+00 0.000E+00 0.000E+00    0        5        1        0
      4  1.100E+04 1.000E+01 0.000E+00 0.000E+00 0.000E+00    1        5        0        0
      5  1.500E+04 0.000E+00 0.000E+00 0.000E+00 0.000E+00    3        6        0        0
      6  2.200E+04 0.000E+00 0.000E+00 0.000E+00 0.000E+00    1        8        0        0
      7  1.550E+04 1.500E+02 0.000E+00 0.000E+00 0.000E+00    2        8        0        0
      8  2.800E+04 0.000E+00 0.000E+00 0.000E+00 0.000E+00    2        0        0        0
      9  6.000E+03 0.000E+00 0.000E+00 0.000E+00 0.000E+00    1        0        2        0


         STREAMBED PROPERTIES AND STREAM DIMENSIONS

 SEGMENT     BED HYD. COND.      BED THICKNESS     ELEV.-TOP OF BED     WIDTH OF STREAM     DEPTH OF STREAM    STREAM ROUGHNESS
    No.     UPPER     LOWER     UPPER     LOWER     UPPER     LOWER     UPPER     LOWER     UPPER     LOWER   CHANNEL      BANK

     1  3.000E-05 3.000E-05 3.000E+00 3.000E+00 1.095E+03 1.075E+03
     2  3.000E-05 3.000E-05 3.000E+00 3.000E+00 1.075E+03 1.050E+03 1.200E+01 1.200E+01                     3.000E-02
     3  3.000E-05 3.000E-05 2.000E+00 2.000E+00 1.075E+03 1.060E+03 1.000E+01 6.000E+00 2.000E+00 1.000E+00
     4  3.000E-05 3.000E-05 3.000E+00 3.000E+00 1.080E+03 1.060E+03 1.000E+01 1.000E+01                     3.000E-02
     5  3.000E-05 3.000E-05 3.000E+00 3.000E+00 1.060E+03 1.045E+03
     6  3.000E-05 3.000E-05 3.000E+00 3.000E+00 1.045E+03 1.025E+03 1.200E+01 1.200E+01                     3.000E-02
     7  6.000E-05 6.000E-05 3.000E+00 3.000E+00 1.040E+03 1.025E+03                                         2.500E-02 4.500E-02
     8  6.000E-05 6.000E-05 3.000E+00 3.000E+00 1.025E+03 9.900E+02                                         2.500E-02 4.500E-02
     9  0.000E+00 0.000E+00 3.000E+00 3.000E+00 1.079E+03 1.078E+03 4.000E+00 4.000E+00                     3.000E-02

  EIGHT POINT CROSS-SECTION DATA FOR SEGMENTS WITH ICALC = 2
    X VALUES X VALUES START FROM LEFT SIDE LOOKING DOWNSTREAM

     SEGMENT NO.        X1        X2        X3        X4        X5        X6        X7        X8
            7      0.000E+00 1.000E+01 8.000E+01 1.000E+02 1.500E+02 1.700E+02 2.400E+02 2.500E+02
            8      0.000E+00 1.000E+01 8.000E+01 1.000E+02 1.500E+02 1.700E+02 2.400E+02 2.500E+02

    Z VALUES ARE RELATIVE TO STREAMBED ELEVATION

     SEGMENT NO.          Z1        Z2        Z3        Z4        Z5        Z6        Z7        Z8
            7      2.000E+01 1.300E+01 1.000E+01 2.000E+00 0.000E+00 1.000E+01 1.300E+01 2.000E+01
            8      2.500E+01 1.700E+01 1.300E+01 4.000E+00 0.000E+00 1.000E+01 1.600E+01 2.000E+01

 STREAMFLOW RELATION WITH DEPTH IS BASED ON EQUATION Q = CDPTH*(DEPTH)**FDPTH
 STREAMFLOW RELATION WITH WIDTH IS BASED ON EQUATION Q = AWDTH*(WIDTH)**BWDTH

 SEGMENT NO.      CDPTH     FDPTH    AWDTH     BWDTH

          5 3.000E-01 3.500E-01 3.800E+00 6.000E-01

 STREAMFLOW RELATION WITH DEPTH AND WIDTH IS BASED ON TABULATED VALUES

  SEGMENT NO.   STREAMFLOW       DEPTH       WIDTH

          1     5.0000E-01   2.5000E-01   3.0000E+00
          1     1.0000E+00   4.0000E-01   3.5000E+00
          1     2.0000E+00   5.5000E-01   4.2000E+00
          1     4.0000E+00   7.0000E-01   5.3000E+00
          1     7.0000E+00   8.0000E-01   7.0000E+00
          1     1.0000E+01   9.0000E-01   8.5000E+00
          1     2.0000E+01   1.1000E+00   1.2000E+01
          1     3.0000E+01   1.2500E+00   1.4000E+01
          1     5.0000E+01   1.4000E+00   1.7000E+01
          1     7.5000E+01   1.7000E+00   2.0000E+01
          1     1.0000E+02   1.8000E+00   2.2000E+01



TABULAR INFLOWS WERE READ FOR SEGMENT      1
FROM FILE UNIT NUMBER     55

          TIMES                    INFLOWS
         0.0000000000E+00     0.3750000000E+01
         0.8640000000E+05     0.1650000000E+02
         0.2760000000E+07     0.3150000000E+02
         0.5270000000E+07     0.5775000000E+02
         0.7950000000E+07     0.2100000000E+02
         0.1050000000E+08     0.7425000000E+02
         0.1320000000E+08     0.6225000000E+02
         0.1580000000E+08     0.5625000000E+02
         0.1850000000E+08     0.4575000000E+02
         0.2120000000E+08     0.3525000000E+02
         0.2380000000E+08     0.2625000000E+02
         0.2640000000E+08     0.1950000000E+02
         0.2900000000E+08     0.1725000000E+02
         0.3170000000E+08     0.1425000000E+02
         0.3440000000E+08     0.1575000000E+02
         0.3680000000E+08     0.7350000000E+02
         0.3950000000E+08     0.5625000000E+02
         0.4210000000E+08     0.4725000000E+02
         0.4480000000E+08     0.4350000000E+02
         0.4730000000E+08     0.4050000000E+02
         0.5000000000E+08     0.2775000000E+02
         0.5270000000E+08     0.1875000000E+02
         0.5530000000E+08     0.1650000000E+02
         0.5800000000E+08     0.1575000000E+02
         0.6060000000E+08     0.1500000000E+02
         0.6320000000E+08     0.1425000000E+02
         0.6330000000E+08     0.1650000000E+02
         0.6600000000E+08     0.3150000000E+02
         0.6850000000E+08     0.5775000000E+02
         0.7120000000E+08     0.2100000000E+02
         0.7370000000E+08     0.7425000000E+02
         0.7640000000E+08     0.6225000000E+02
         0.7900000000E+08     0.5625000000E+02
         0.8170000000E+08     0.4575000000E+02
         0.8440000000E+08     0.3525000000E+02
         0.8700000000E+08     0.2625000000E+02
         0.8960000000E+08     0.1950000000E+02
         0.9220000000E+08     0.1725000000E+02
         0.9490000000E+08     0.1425000000E+02
         0.9760000000E+08     0.1575000000E+02
         0.1000000000E+09     0.7350000000E+02
         0.1030000000E+09     0.5625000000E+02
         0.1050000000E+09     0.4725000000E+02
         0.1080000000E+09     0.4350000000E+02
         0.1110000000E+09     0.4050000000E+02
         0.1130000000E+09     0.2775000000E+02
         0.1160000000E+09     0.1875000000E+02
         0.1190000000E+09     0.1650000000E+02
         0.1210000000E+09     0.1575000000E+02
         0.1240000000E+09     0.1500000000E+02
         0.1260000000E+09     0.1425000000E+02
TABULAR INFLOWS WERE READ FOR SEGMENT      9
FROM FILE UNIT NUMBER     56

          TIMES                    INFLOWS
         0.0000000000E+00     0.1000000000E+03
         0.8640000000E+05     0.1000000000E+03
         0.1730000000E+06     0.1000000000E+03
         0.2590000000E+06     0.1000000000E+03
         0.3460000000E+06     0.1000000000E+03
         0.4320000000E+06     0.1000000000E+03
         0.5180000000E+06     0.1000000000E+03
         0.6050000000E+06     0.1000000000E+03
         0.6910000000E+06     0.1000000000E+03
         0.7780000000E+06     0.1000000000E+03
         0.8640000000E+06     0.1000000000E+03
         0.9500000000E+06     0.1000000000E+03
         0.1040000000E+07     0.1000000000E+03
         0.1120000000E+07     0.1000000000E+03
         0.1210000000E+07     0.1000000000E+03
         0.1300000000E+07     0.1000000000E+03
         0.1380000000E+07     0.1000000000E+03
         0.1470000000E+07     0.1000000000E+03
         0.1560000000E+07     0.1000000000E+03
         0.1640000000E+07     0.1000000000E+03
         0.1730000000E+07     0.1000000000E+03
         0.1810000000E+07     0.1000000000E+03
         0.1900000000E+07     0.1000000000E+03
         0.1990000000E+07     0.1000000000E+03
         0.2070000000E+07     0.1000000000E+03
         0.2160000000E+07     0.1000000000E+03
         0.2250000000E+07     0.1000000000E+03
         0.2330000000E+07     0.1000000000E+03
         0.2420000000E+07     0.1000000000E+03
         0.2510000000E+07     0.1000000000E+03
         0.2590000000E+07     0.1000000000E+03
         0.2680000000E+07     0.1000000000E+03
         0.2760000000E+07     0.1000000000E+03
         0.2850000000E+07     0.1000000000E+03
         0.2940000000E+07     0.1000000000E+03
         0.3020000000E+07     0.1000000000E+03
         0.3110000000E+07     0.1000000000E+03
         0.3200000000E+07     0.1000000000E+03
         0.3280000000E+07     0.1000000000E+03
         0.3370000000E+07     0.1000000000E+03
         0.3460000000E+07     0.1000000000E+03
         0.3540000000E+07     0.1000000000E+03
         0.3630000000E+07     0.1000000000E+03
         0.3720000000E+07     0.1000000000E+03
         0.3800000000E+07     0.1000000000E+03
         0.3890000000E+07     0.1000000000E+03
         0.3970000000E+07     0.1000000000E+03
         0.4060000000E+07     0.1000000000E+03
         0.4150000000E+07     0.1000000000E+03
         0.4230000000E+07     0.1000000000E+03
         0.4320000000E+07     0.1000000000E+03
         0.4410000000E+07     0.1000000000E+03
         0.4490000000E+07     0.1000000000E+03
         0.4580000000E+07     0.1000000000E+03
         0.4670000000E+07     0.1000000000E+03
         0.4750000000E+07     0.1000000000E+03
         0.4840000000E+07     0.1000000000E+03
         0.4920000000E+07     0.1000000000E+03
         0.5010000000E+07     0.1000000000E+03
         0.5100000000E+07     0.1000000000E+03
         0.5180000000E+07     0.1000000000E+03
         0.5270000000E+07     0.1000000000E+03
         0.5360000000E+07     0.1000000000E+03
         0.5440000000E+07     0.1000000000E+03
         0.5530000000E+07     0.1000000000E+03
         0.5620000000E+07     0.1000000000E+03
         0.5700000000E+07     0.1000000000E+03
         0.5790000000E+07     0.1000000000E+03
         0.5880000000E+07     0.1000000000E+03
         0.5960000000E+07     0.1000000000E+03
         0.6050000000E+07     0.1000000000E+03
         0.6130000000E+07     0.1000000000E+03
         0.6220000000E+07     0.1000000000E+03
         0.6310000000E+07     0.1000000000E+03
         0.6390000000E+07     0.1000000000E+03
         0.6480000000E+07     0.1000000000E+03
         0.6570000000E+07     0.1000000000E+03
         0.6650000000E+07     0.1000000000E+03
         0.6740000000E+07     0.1000000000E+03
         0.6830000000E+07     0.1000000000E+03
         0.6910000000E+07     0.1000000000E+03
         0.7000000000E+07     0.1000000000E+03
         0.7080000000E+07     0.1000000000E+03
         0.7170000000E+07     0.1000000000E+03
         0.7260000000E+07     0.1000000000E+03
         0.7340000000E+07     0.1000000000E+03
         0.7430000000E+07     0.1000000000E+03
         0.7520000000E+07     0.1000000000E+03
         0.7600000000E+07     0.1000000000E+03
         0.7690000000E+07     0.1000000000E+03
         0.7780000000E+07     0.1000000000E+03
         0.7860000000E+07     0.1000000000E+03
         0.7950000000E+07     0.1000000000E+03
         0.8040000000E+07     0.1000000000E+03
         0.8120000000E+07     0.1000000000E+03
         0.8210000000E+07     0.1000000000E+03
         0.8290000000E+07     0.1000000000E+03
         0.8380000000E+07     0.1000000000E+03
         0.8470000000E+07     0.1000000000E+03
         0.8550000000E+07     0.1000000000E+03
         0.8640000000E+07     0.1000000000E+03
         0.8730000000E+07     0.1000000000E+03
         0.8810000000E+07     0.1000000000E+03
         0.8900000000E+07     0.1000000000E+03
         0.8990000000E+07     0.1000000000E+03
         0.9070000000E+07     0.1000000000E+03
         0.9160000000E+07     0.1000000000E+03
         0.9240000000E+07     0.1000000000E+03
         0.9330000000E+07     0.1000000000E+03
         0.9420000000E+07     0.1000000000E+03
         0.9500000000E+07     0.1000000000E+03
         0.9590000000E+07     0.1000000000E+03
         0.9680000000E+07     0.1000000000E+03
         0.9760000000E+07     0.1000000000E+03
         0.9850000000E+07     0.1000000000E+03
         0.9940000000E+07     0.1000000000E+03
         0.1000000000E+08     0.1000000000E+03
         0.1010000000E+08     0.1000000000E+03
         0.1020000000E+08     0.1000000000E+03
         0.1030000000E+08     0.1000000000E+03
         0.1040000000E+08     0.1000000000E+03
         0.1050000000E+08     0.1000000000E+03
         0.1050000000E+08     0.1000000000E+03
         0.1060000000E+08     0.1000000000E+03
         0.1070000000E+08     0.1000000000E+03
         0.1080000000E+08     0.1000000000E+03
         0.1090000000E+08     0.1000000000E+03
         0.1100000000E+08     0.1000000000E+03
         0.1110000000E+08     0.1000000000E+03
         0.1110000000E+08     0.1000000000E+03
         0.1120000000E+08     0.1000000000E+03
         0.1130000000E+08     0.1000000000E+03
         0.1140000000E+08     0.1000000000E+03
         0.1150000000E+08     0.1000000000E+03
         0.1160000000E+08     0.1000000000E+03
         0.1170000000E+08     0.1000000000E+03
         0.1180000000E+08     0.1000000000E+03
         0.1180000000E+08     0.1000000000E+03
         0.1190000000E+08     0.1000000000E+03
         0.1200000000E+08     0.1000000000E+03
         0.1210000000E+08     0.1000000000E+03
         0.1220000000E+08     0.1000000000E+03
         0.1230000000E+08     0.1000000000E+03
         0.1240000000E+08     0.1000000000E+03
         0.1240000000E+08     0.1000000000E+03
         0.1250000000E+08     0.1000000000E+03
         0.1260000000E+08     0.1000000000E+03
         0.1270000000E+08     0.1000000000E+03
         0.1280000000E+08     0.1000000000E+03
         0.1290000000E+08     0.1000000000E+03
         0.1300000000E+08     0.1000000000E+03
         0.1300000000E+08     0.1000000000E+03
         0.1310000000E+08     0.1000000000E+03
         0.1320000000E+08     0.1000000000E+03
         0.1330000000E+08     0.1000000000E+03
         0.1340000000E+08     0.1000000000E+03
         0.1350000000E+08     0.1000000000E+03
         0.1360000000E+08     0.1000000000E+03
         0.1370000000E+08     0.1000000000E+03
         0.1370000000E+08     0.1000000000E+03
         0.1380000000E+08     0.1000000000E+03
         0.1390000000E+08     0.1000000000E+03
         0.1400000000E+08     0.1000000000E+03
         0.1410000000E+08     0.1000000000E+03
         0.1420000000E+08     0.1000000000E+03
         0.1430000000E+08     0.1000000000E+03
         0.1430000000E+08     0.1000000000E+03
         0.1440000000E+08     0.1000000000E+03
         0.1450000000E+08     0.1000000000E+03
         0.1460000000E+08     0.1000000000E+03
         0.1470000000E+08     0.1000000000E+03
         0.1480000000E+08     0.1000000000E+03
         0.1490000000E+08     0.1000000000E+03
         0.1490000000E+08     0.1000000000E+03
         0.1500000000E+08     0.1000000000E+03
         0.1510000000E+08     0.1000000000E+03
         0.1520000000E+08     0.1000000000E+03
         0.1530000000E+08     0.1000000000E+03
         0.1540000000E+08     0.1000000000E+03
         0.1550000000E+08     0.1000000000E+03
         0.1560000000E+08     0.1000000000E+03
         0.1560000000E+08     0.1000000000E+03
         0.1570000000E+08     0.1000000000E+03
         0.1580000000E+08     0.1000000000E+03
         0.1590000000E+08     0.1000000000E+03
         0.1600000000E+08     0.1000000000E+03
         0.1610000000E+08     0.1000000000E+03
         0.1620000000E+08     0.1000000000E+03
         0.1620000000E+08     0.1000000000E+03
         0.1630000000E+08     0.1000000000E+03
         0.1640000000E+08     0.1000000000E+03
         0.1650000000E+08     0.1000000000E+03
         0.1660000000E+08     0.1000000000E+03
         0.1670000000E+08     0.1000000000E+03
         0.1680000000E+08     0.1000000000E+03
         0.1680000000E+08     0.1000000000E+03
         0.1690000000E+08     0.1000000000E+03
         0.1700000000E+08     0.1000000000E+03
         0.1710000000E+08     0.1000000000E+03
         0.1720000000E+08     0.1000000000E+03
         0.1730000000E+08     0.1000000000E+03
         0.1740000000E+08     0.1000000000E+03
         0.1750000000E+08     0.1000000000E+03
         0.1750000000E+08     0.1000000000E+03
         0.1760000000E+08     0.1000000000E+03
         0.1770000000E+08     0.1000000000E+03
         0.1780000000E+08     0.1000000000E+03
         0.1790000000E+08     0.1000000000E+03
         0.1800000000E+08     0.1000000000E+03
         0.1810000000E+08     0.1000000000E+03
         0.1810000000E+08     0.1000000000E+03
         0.1820000000E+08     0.1000000000E+03
         0.1830000000E+08     0.1000000000E+03
         0.1840000000E+08     0.1000000000E+03
         0.1850000000E+08     0.1000000000E+03
         0.1860000000E+08     0.1000000000E+03
         0.1870000000E+08     0.1000000000E+03
         0.1870000000E+08     0.1000000000E+03
         0.1880000000E+08     0.1000000000E+03
         0.1890000000E+08     0.1000000000E+03
         0.1900000000E+08     0.1000000000E+03
         0.1910000000E+08     0.1000000000E+03
         0.1920000000E+08     0.1000000000E+03
         0.1930000000E+08     0.1000000000E+03
         0.1940000000E+08     0.1000000000E+03
         0.1940000000E+08     0.1000000000E+03
         0.1950000000E+08     0.1000000000E+03
         0.1960000000E+08     0.1000000000E+03
         0.1970000000E+08     0.1000000000E+03
         0.1980000000E+08     0.1000000000E+03
         0.1990000000E+08     0.1000000000E+03
         0.2000000000E+08     0.1000000000E+03
         0.2000000000E+08     0.1000000000E+03
         0.2010000000E+08     0.1000000000E+03
         0.2020000000E+08     0.1000000000E+03
         0.2030000000E+08     0.1000000000E+03
         0.2040000000E+08     0.1000000000E+03
         0.2050000000E+08     0.1000000000E+03
         0.2060000000E+08     0.1000000000E+03
         0.2070000000E+08     0.1000000000E+03
         0.2070000000E+08     0.1000000000E+03
         0.2080000000E+08     0.1000000000E+03
         0.2090000000E+08     0.1000000000E+03
         0.2100000000E+08     0.1000000000E+03
         0.2110000000E+08     0.1000000000E+03
         0.2120000000E+08     0.1000000000E+03
         0.2130000000E+08     0.1000000000E+03
         0.2130000000E+08     0.1000000000E+03
         0.2140000000E+08     0.1000000000E+03
         0.2150000000E+08     0.1000000000E+03
         0.2160000000E+08     0.1000000000E+03
         0.2170000000E+08     0.1000000000E+03
         0.2180000000E+08     0.1000000000E+03
         0.2190000000E+08     0.1000000000E+03
         0.2190000000E+08     0.1000000000E+03
         0.2200000000E+08     0.1000000000E+03
         0.2210000000E+08     0.1000000000E+03
         0.2220000000E+08     0.1000000000E+03
         0.2230000000E+08     0.1000000000E+03
         0.2240000000E+08     0.1000000000E+03
         0.2250000000E+08     0.1000000000E+03
         0.2260000000E+08     0.1000000000E+03
         0.2260000000E+08     0.1000000000E+03
         0.2270000000E+08     0.1000000000E+03
         0.2280000000E+08     0.1000000000E+03
         0.2290000000E+08     0.1000000000E+03
         0.2300000000E+08     0.1000000000E+03
         0.2310000000E+08     0.1000000000E+03
         0.2320000000E+08     0.1000000000E+03
         0.2320000000E+08     0.1000000000E+03
         0.2330000000E+08     0.1000000000E+03
         0.2340000000E+08     0.1000000000E+03
         0.2350000000E+08     0.1000000000E+03
         0.2360000000E+08     0.1000000000E+03
         0.2370000000E+08     0.1000000000E+03
         0.2380000000E+08     0.1000000000E+03
         0.2380000000E+08     0.1000000000E+03
         0.2390000000E+08     0.1000000000E+03
         0.2400000000E+08     0.1000000000E+03
         0.2410000000E+08     0.1000000000E+03
         0.2420000000E+08     0.1000000000E+03
         0.2430000000E+08     0.1000000000E+03
         0.2440000000E+08     0.1000000000E+03
         0.2450000000E+08     0.1000000000E+03
         0.2450000000E+08     0.1000000000E+03
         0.2460000000E+08     0.1000000000E+03
         0.2470000000E+08     0.1000000000E+03
         0.2480000000E+08     0.1000000000E+03
         0.2490000000E+08     0.1000000000E+03
         0.2500000000E+08     0.1000000000E+03
         0.2510000000E+08     0.1000000000E+03
         0.2510000000E+08     0.1000000000E+03
         0.2520000000E+08     0.1000000000E+03
         0.2530000000E+08     0.1000000000E+03
         0.2540000000E+08     0.1000000000E+03
         0.2550000000E+08     0.1000000000E+03
         0.2560000000E+08     0.1000000000E+03
         0.2570000000E+08     0.1000000000E+03
         0.2570000000E+08     0.1000000000E+03
         0.2580000000E+08     0.1000000000E+03
         0.2590000000E+08     0.1000000000E+03
         0.2600000000E+08     0.1000000000E+03
         0.2610000000E+08     0.1000000000E+03
         0.2620000000E+08     0.1000000000E+03
         0.2630000000E+08     0.1000000000E+03
         0.2640000000E+08     0.1000000000E+03
         0.2640000000E+08     0.1000000000E+03
         0.2650000000E+08     0.1000000000E+03
         0.2660000000E+08     0.1000000000E+03
         0.2670000000E+08     0.1000000000E+03
         0.2680000000E+08     0.1000000000E+03
         0.2690000000E+08     0.1000000000E+03
         0.2700000000E+08     0.1000000000E+03
         0.2700000000E+08     0.1000000000E+03
         0.2710000000E+08     0.1000000000E+03
         0.2720000000E+08     0.1000000000E+03
         0.2730000000E+08     0.1000000000E+03
         0.2740000000E+08     0.1000000000E+03
         0.2750000000E+08     0.1000000000E+03
         0.2760000000E+08     0.1000000000E+03
         0.2760000000E+08     0.1000000000E+03
         0.2770000000E+08     0.1000000000E+03
         0.2780000000E+08     0.1000000000E+03
         0.2790000000E+08     0.1000000000E+03
         0.2800000000E+08     0.1000000000E+03
         0.2810000000E+08     0.1000000000E+03
         0.2820000000E+08     0.1000000000E+03
         0.2830000000E+08     0.1000000000E+03
         0.2830000000E+08     0.1000000000E+03
         0.2840000000E+08     0.1000000000E+03
         0.2850000000E+08     0.1000000000E+03
         0.2860000000E+08     0.1000000000E+03
         0.2870000000E+08     0.1000000000E+03
         0.2880000000E+08     0.1000000000E+03
         0.2890000000E+08     0.1000000000E+03
         0.2890000000E+08     0.1000000000E+03
         0.2900000000E+08     0.1000000000E+03
         0.2910000000E+08     0.1000000000E+03
         0.2920000000E+08     0.1000000000E+03
         0.2930000000E+08     0.1000000000E+03
         0.2940000000E+08     0.1000000000E+03
         0.2950000000E+08     0.1000000000E+03
         0.2950000000E+08     0.1000000000E+03
         0.2960000000E+08     0.1000000000E+03
         0.2970000000E+08     0.1000000000E+03
         0.2980000000E+08     0.1000000000E+03
         0.2990000000E+08     0.1000000000E+03
         0.3000000000E+08     0.1000000000E+03
         0.3010000000E+08     0.1000000000E+03
         0.3020000000E+08     0.1000000000E+03
         0.3020000000E+08     0.1000000000E+03
         0.3030000000E+08     0.1000000000E+03
         0.3040000000E+08     0.1000000000E+03
         0.3050000000E+08     0.1000000000E+03
         0.3060000000E+08     0.1000000000E+03
         0.3070000000E+08     0.1000000000E+03
         0.3080000000E+08     0.1000000000E+03
         0.3080000000E+08     0.1000000000E+03
         0.3090000000E+08     0.1000000000E+03
         0.3100000000E+08     0.1000000000E+03
         0.3110000000E+08     0.1000000000E+03
         0.3120000000E+08     0.1000000000E+03
         0.3130000000E+08     0.1000000000E+03
         0.3140000000E+08     0.1000000000E+03
         0.3150000000E+08     0.1000000000E+03
         0.3150000000E+08     0.1000000000E+03
         0.3160000000E+08     0.1000000000E+03
         0.3170000000E+08     0.1000000000E+03
         0.3180000000E+08     0.1000000000E+03
         0.3190000000E+08     0.1000000000E+03
         0.3200000000E+08     0.1000000000E+03
         0.3210000000E+08     0.1000000000E+03
         0.3210000000E+08     0.1000000000E+03
         0.3220000000E+08     0.1000000000E+03
         0.3230000000E+08     0.1000000000E+03
         0.3240000000E+08     0.1000000000E+03
         0.3250000000E+08     0.1000000000E+03
         0.3260000000E+08     0.1000000000E+03
         0.3270000000E+08     0.1000000000E+03
         0.3270000000E+08     0.1000000000E+03
         0.3280000000E+08     0.1000000000E+03
         0.3290000000E+08     0.1000000000E+03
         0.3300000000E+08     0.1000000000E+03
         0.3310000000E+08     0.1000000000E+03
         0.3320000000E+08     0.1000000000E+03
         0.3330000000E+08     0.1000000000E+03
         0.3340000000E+08     0.1000000000E+03
         0.3340000000E+08     0.1000000000E+03
         0.3350000000E+08     0.1000000000E+03
         0.3360000000E+08     0.1000000000E+03
         0.3370000000E+08     0.1000000000E+03
         0.3380000000E+08     0.1000000000E+03
         0.3390000000E+08     0.1000000000E+03
         0.3400000000E+08     0.1000000000E+03
         0.3400000000E+08     0.1000000000E+03
         0.3410000000E+08     0.1000000000E+03
         0.3420000000E+08     0.1000000000E+03
         0.3430000000E+08     0.1000000000E+03
         0.3440000000E+08     0.1000000000E+03
         0.3450000000E+08     0.1000000000E+03
         0.3460000000E+08     0.1000000000E+03
         0.3460000000E+08     0.1000000000E+03
         0.3470000000E+08     0.1000000000E+03
         0.3480000000E+08     0.1000000000E+03
         0.3490000000E+08     0.1000000000E+03
         0.3500000000E+08     0.1000000000E+03
         0.3510000000E+08     0.1000000000E+03
         0.3520000000E+08     0.1000000000E+03
         0.3530000000E+08     0.1000000000E+03
         0.3530000000E+08     0.1000000000E+03
         0.3540000000E+08     0.1000000000E+03
         0.3550000000E+08     0.1000000000E+03
         0.3560000000E+08     0.1000000000E+03
         0.3570000000E+08     0.1000000000E+03
         0.3580000000E+08     0.1000000000E+03
         0.3590000000E+08     0.1000000000E+03
         0.3590000000E+08     0.1000000000E+03
         0.3600000000E+08     0.1000000000E+03
         0.3610000000E+08     0.1000000000E+03
         0.3620000000E+08     0.1000000000E+03
         0.3630000000E+08     0.1000000000E+03
         0.3640000000E+08     0.1000000000E+03
         0.3650000000E+08     0.1000000000E+03
         0.3650000000E+08     0.1000000000E+03
         0.3660000000E+08     0.1000000000E+03
         0.3670000000E+08     0.1000000000E+03
         0.3680000000E+08     0.1000000000E+03
         0.3690000000E+08     0.1000000000E+03
         0.3700000000E+08     0.1000000000E+03
         0.3710000000E+08     0.1000000000E+03
         0.3720000000E+08     0.1000000000E+03
         0.3720000000E+08     0.1000000000E+03
         0.3730000000E+08     0.1000000000E+03
         0.3740000000E+08     0.1000000000E+03
         0.3750000000E+08     0.1000000000E+03
         0.3760000000E+08     0.1000000000E+03
         0.3770000000E+08     0.1000000000E+03
         0.3780000000E+08     0.1000000000E+03
         0.3780000000E+08     0.1000000000E+03
         0.3790000000E+08     0.1000000000E+03
         0.3800000000E+08     0.1000000000E+03
         0.3810000000E+08     0.1000000000E+03
         0.3820000000E+08     0.1000000000E+03
         0.3830000000E+08     0.1000000000E+03
         0.3840000000E+08     0.1000000000E+03
         0.3840000000E+08     0.1000000000E+03
         0.3850000000E+08     0.1000000000E+03
         0.3860000000E+08     0.1000000000E+03
         0.3870000000E+08     0.1000000000E+03
         0.3880000000E+08     0.1000000000E+03
         0.3890000000E+08     0.1000000000E+03
         0.3900000000E+08     0.1000000000E+03
         0.3910000000E+08     0.1000000000E+03
         0.3910000000E+08     0.1000000000E+03
         0.3920000000E+08     0.1000000000E+03
         0.3930000000E+08     0.1000000000E+03
         0.3940000000E+08     0.1000000000E+03
         0.3950000000E+08     0.1000000000E+03
         0.3960000000E+08     0.1000000000E+03
         0.3970000000E+08     0.1000000000E+03
         0.3970000000E+08     0.1000000000E+03
         0.3980000000E+08     0.1000000000E+03
         0.3990000000E+08     0.1000000000E+03
         0.4000000000E+08     0.1000000000E+03
         0.4010000000E+08     0.1000000000E+03
         0.4020000000E+08     0.1000000000E+03
         0.4030000000E+08     0.1000000000E+03
         0.4030000000E+08     0.1000000000E+03
         0.4040000000E+08     0.1000000000E+03
         0.4050000000E+08     0.1000000000E+03
         0.4060000000E+08     0.1000000000E+03
         0.4070000000E+08     0.1000000000E+03
         0.4080000000E+08     0.1000000000E+03
         0.4090000000E+08     0.1000000000E+03
         0.4100000000E+08     0.1000000000E+03
         0.4100000000E+08     0.1000000000E+03
         0.4110000000E+08     0.1000000000E+03
         0.4120000000E+08     0.1000000000E+03
         0.4130000000E+08     0.1000000000E+03
         0.4140000000E+08     0.1000000000E+03
         0.4150000000E+08     0.1000000000E+03
         0.4160000000E+08     0.1000000000E+03
         0.4160000000E+08     0.1000000000E+03
         0.4170000000E+08     0.1000000000E+03
         0.4180000000E+08     0.1000000000E+03
         0.4190000000E+08     0.1000000000E+03
         0.4200000000E+08     0.1000000000E+03
         0.4210000000E+08     0.1000000000E+03
         0.4220000000E+08     0.1000000000E+03
         0.4230000000E+08     0.1000000000E+03
         0.4230000000E+08     0.1000000000E+03
         0.4240000000E+08     0.1000000000E+03
         0.4250000000E+08     0.1000000000E+03
         0.4260000000E+08     0.1000000000E+03
         0.4270000000E+08     0.1000000000E+03
         0.4280000000E+08     0.1000000000E+03
         0.4290000000E+08     0.1000000000E+03
         0.4290000000E+08     0.1000000000E+03
         0.4300000000E+08     0.1000000000E+03
         0.4310000000E+08     0.1000000000E+03
         0.4320000000E+08     0.1000000000E+03
         0.4330000000E+08     0.1000000000E+03
         0.4340000000E+08     0.1000000000E+03
         0.4350000000E+08     0.1000000000E+03
         0.4350000000E+08     0.1000000000E+03
         0.4360000000E+08     0.1000000000E+03
         0.4370000000E+08     0.1000000000E+03
         0.4380000000E+08     0.1000000000E+03
         0.4390000000E+08     0.1000000000E+03
         0.4400000000E+08     0.1000000000E+03
         0.4410000000E+08     0.1000000000E+03
         0.4420000000E+08     0.1000000000E+03
         0.4420000000E+08     0.1000000000E+03
         0.4430000000E+08     0.1000000000E+03
         0.4440000000E+08     0.1000000000E+03
         0.4450000000E+08     0.1000000000E+03
         0.4460000000E+08     0.1000000000E+03
         0.4470000000E+08     0.1000000000E+03
         0.4480000000E+08     0.1000000000E+03
         0.4480000000E+08     0.1000000000E+03
         0.4490000000E+08     0.1000000000E+03
         0.4500000000E+08     0.1000000000E+03
         0.4510000000E+08     0.1000000000E+03
         0.4520000000E+08     0.1000000000E+03
         0.4530000000E+08     0.1000000000E+03
         0.4540000000E+08     0.1000000000E+03
         0.4540000000E+08     0.1000000000E+03
         0.4550000000E+08     0.1000000000E+03
         0.4560000000E+08     0.1000000000E+03
         0.4570000000E+08     0.1000000000E+03
         0.4580000000E+08     0.1000000000E+03
         0.4590000000E+08     0.1000000000E+03
         0.4600000000E+08     0.1000000000E+03
         0.4610000000E+08     0.1000000000E+03
         0.4610000000E+08     0.1000000000E+03
         0.4620000000E+08     0.1000000000E+03
         0.4630000000E+08     0.1000000000E+03
         0.4640000000E+08     0.1000000000E+03
         0.4650000000E+08     0.1000000000E+03
         0.4660000000E+08     0.1000000000E+03
         0.4670000000E+08     0.1000000000E+03
         0.4670000000E+08     0.1000000000E+03
         0.4680000000E+08     0.1000000000E+03
         0.4690000000E+08     0.1000000000E+03
         0.4700000000E+08     0.1000000000E+03
         0.4710000000E+08     0.1000000000E+03
         0.4720000000E+08     0.1000000000E+03
         0.4730000000E+08     0.1000000000E+03
         0.4730000000E+08     0.1000000000E+03
         0.4740000000E+08     0.1000000000E+03
         0.4750000000E+08     0.1000000000E+03
         0.4760000000E+08     0.1000000000E+03
         0.4770000000E+08     0.1000000000E+03
         0.4780000000E+08     0.1000000000E+03
         0.4790000000E+08     0.1000000000E+03
         0.4800000000E+08     0.1000000000E+03
         0.4800000000E+08     0.1000000000E+03
         0.4810000000E+08     0.1000000000E+03
         0.4820000000E+08     0.1000000000E+03
         0.4830000000E+08     0.1000000000E+03
         0.4840000000E+08     0.1000000000E+03
         0.4850000000E+08     0.1000000000E+03
         0.4860000000E+08     0.1000000000E+03
         0.4860000000E+08     0.1000000000E+03
         0.4870000000E+08     0.1000000000E+03
         0.4880000000E+08     0.1000000000E+03
         0.4890000000E+08     0.1000000000E+03
         0.4900000000E+08     0.1000000000E+03
         0.4910000000E+08     0.1000000000E+03
         0.4920000000E+08     0.1000000000E+03
         0.4920000000E+08     0.1000000000E+03
         0.4930000000E+08     0.1000000000E+03
         0.4940000000E+08     0.1000000000E+03
         0.4950000000E+08     0.1000000000E+03
         0.4960000000E+08     0.1000000000E+03
         0.4970000000E+08     0.1000000000E+03
         0.4980000000E+08     0.1000000000E+03
         0.4990000000E+08     0.1000000000E+03
         0.4990000000E+08     0.1000000000E+03
         0.5000000000E+08     0.1000000000E+03
         0.5010000000E+08     0.1000000000E+03
         0.5020000000E+08     0.1000000000E+03
         0.5030000000E+08     0.1000000000E+03
         0.5040000000E+08     0.1000000000E+03
         0.5050000000E+08     0.1000000000E+03
         0.5050000000E+08     0.1000000000E+03
         0.5060000000E+08     0.1000000000E+03
         0.5070000000E+08     0.1000000000E+03
         0.5080000000E+08     0.1000000000E+03
         0.5090000000E+08     0.1000000000E+03
         0.5100000000E+08     0.1000000000E+03
         0.5110000000E+08     0.1000000000E+03
         0.5110000000E+08     0.1000000000E+03
         0.5120000000E+08     0.1000000000E+03
         0.5130000000E+08     0.1000000000E+03
         0.5140000000E+08     0.1000000000E+03
         0.5150000000E+08     0.1000000000E+03
         0.5160000000E+08     0.1000000000E+03
         0.5170000000E+08     0.1000000000E+03
         0.5180000000E+08     0.1000000000E+03
         0.5180000000E+08     0.1000000000E+03
         0.5190000000E+08     0.1000000000E+03
         0.5200000000E+08     0.1000000000E+03
         0.5210000000E+08     0.1000000000E+03
         0.5220000000E+08     0.1000000000E+03
         0.5230000000E+08     0.1000000000E+03
         0.5240000000E+08     0.1000000000E+03
         0.5240000000E+08     0.1000000000E+03
         0.5250000000E+08     0.1000000000E+03
         0.5260000000E+08     0.1000000000E+03
         0.5270000000E+08     0.1000000000E+03
         0.5280000000E+08     0.1000000000E+03
         0.5290000000E+08     0.1000000000E+03
         0.5300000000E+08     0.1000000000E+03
         0.5310000000E+08     0.1000000000E+03
         0.5310000000E+08     0.1000000000E+03
         0.5320000000E+08     0.1000000000E+03
         0.5330000000E+08     0.1000000000E+03
         0.5340000000E+08     0.1000000000E+03
         0.5350000000E+08     0.1000000000E+03
         0.5360000000E+08     0.1000000000E+03
         0.5370000000E+08     0.1000000000E+03
         0.5370000000E+08     0.1000000000E+03
         0.5380000000E+08     0.1000000000E+03
         0.5390000000E+08     0.1000000000E+03
         0.5400000000E+08     0.1000000000E+03
         0.5410000000E+08     0.1000000000E+03
         0.5420000000E+08     0.1000000000E+03
         0.5430000000E+08     0.1000000000E+03
         0.5430000000E+08     0.1000000000E+03
         0.5440000000E+08     0.1000000000E+03
         0.5450000000E+08     0.1000000000E+03
         0.5460000000E+08     0.1000000000E+03
         0.5470000000E+08     0.1000000000E+03
         0.5480000000E+08     0.1000000000E+03
         0.5490000000E+08     0.1000000000E+03
         0.5500000000E+08     0.1000000000E+03
         0.5500000000E+08     0.1000000000E+03
         0.5510000000E+08     0.1000000000E+03
         0.5520000000E+08     0.1000000000E+03
         0.5530000000E+08     0.1000000000E+03
         0.5540000000E+08     0.1000000000E+03
         0.5550000000E+08     0.1000000000E+03
         0.5560000000E+08     0.1000000000E+03
         0.5560000000E+08     0.1000000000E+03
         0.5570000000E+08     0.1000000000E+03
         0.5580000000E+08     0.1000000000E+03
         0.5590000000E+08     0.1000000000E+03
         0.5600000000E+08     0.1000000000E+03
         0.5610000000E+08     0.1000000000E+03
         0.5620000000E+08     0.1000000000E+03
         0.5620000000E+08     0.1000000000E+03
         0.5630000000E+08     0.1000000000E+03
         0.5640000000E+08     0.1000000000E+03
         0.5650000000E+08     0.1000000000E+03
         0.5660000000E+08     0.1000000000E+03
         0.5670000000E+08     0.1000000000E+03
         0.5680000000E+08     0.1000000000E+03
         0.5690000000E+08     0.1000000000E+03
         0.5690000000E+08     0.1000000000E+03
         0.5700000000E+08     0.1000000000E+03
         0.5710000000E+08     0.1000000000E+03
         0.5720000000E+08     0.1000000000E+03
         0.5730000000E+08     0.1000000000E+03
         0.5740000000E+08     0.1000000000E+03
         0.5750000000E+08     0.1000000000E+03
         0.5750000000E+08     0.1000000000E+03
         0.5760000000E+08     0.1000000000E+03
         0.5770000000E+08     0.1000000000E+03
         0.5780000000E+08     0.1000000000E+03
         0.5790000000E+08     0.1000000000E+03
         0.5800000000E+08     0.1000000000E+03
         0.5810000000E+08     0.1000000000E+03
         0.5810000000E+08     0.1000000000E+03
         0.5820000000E+08     0.1000000000E+03
         0.5830000000E+08     0.1000000000E+03
         0.5840000000E+08     0.1000000000E+03
         0.5850000000E+08     0.1000000000E+03
         0.5860000000E+08     0.1000000000E+03
         0.5870000000E+08     0.1000000000E+03
         0.5880000000E+08     0.1000000000E+03
         0.5880000000E+08     0.1000000000E+03
         0.5890000000E+08     0.1000000000E+03
         0.5900000000E+08     0.1000000000E+03
         0.5910000000E+08     0.1000000000E+03
         0.5920000000E+08     0.1000000000E+03
         0.5930000000E+08     0.1000000000E+03
         0.5940000000E+08     0.1000000000E+03
         0.5940000000E+08     0.1000000000E+03
         0.5950000000E+08     0.1000000000E+03
         0.5960000000E+08     0.1000000000E+03
         0.5970000000E+08     0.1000000000E+03
         0.5980000000E+08     0.1000000000E+03
         0.5990000000E+08     0.1000000000E+03
         0.6000000000E+08     0.1000000000E+03
         0.6000000000E+08     0.1000000000E+03
         0.6010000000E+08     0.1000000000E+03
         0.6020000000E+08     0.1000000000E+03
         0.6030000000E+08     0.1000000000E+03
         0.6040000000E+08     0.1000000000E+03
         0.6050000000E+08     0.1000000000E+03
         0.6060000000E+08     0.1000000000E+03
         0.6070000000E+08     0.1000000000E+03
         0.6070000000E+08     0.1000000000E+03
         0.6080000000E+08     0.1000000000E+03
         0.6090000000E+08     0.1000000000E+03
         0.6100000000E+08     0.1000000000E+03
         0.6110000000E+08     0.1000000000E+03
         0.6120000000E+08     0.1000000000E+03
         0.6130000000E+08     0.1000000000E+03
         0.6130000000E+08     0.1000000000E+03
         0.6140000000E+08     0.1000000000E+03
         0.6150000000E+08     0.1000000000E+03
         0.6160000000E+08     0.1000000000E+03
         0.6170000000E+08     0.1000000000E+03
         0.6180000000E+08     0.1000000000E+03
         0.6190000000E+08     0.1000000000E+03
         0.6190000000E+08     0.1000000000E+03
         0.6200000000E+08     0.1000000000E+03
         0.6210000000E+08     0.1000000000E+03
         0.6220000000E+08     0.1000000000E+03
         0.6230000000E+08     0.1000000000E+03
         0.6240000000E+08     0.1000000000E+03
         0.6250000000E+08     0.1000000000E+03
         0.6260000000E+08     0.1000000000E+03
         0.6260000000E+08     0.1000000000E+03
         0.6270000000E+08     0.1000000000E+03
         0.6280000000E+08     0.1000000000E+03
         0.6290000000E+08     0.1000000000E+03
         0.6300000000E+08     0.1000000000E+03
         0.6310000000E+08     0.1000000000E+03
         0.6320000000E+08     0.1000000000E+03
         0.6320000000E+08     0.1000000000E+03
         0.6330000000E+08     0.1000000000E+03
         0.6340000000E+08     0.1000000000E+03
         0.6350000000E+08     0.1000000000E+03
         0.6360000000E+08     0.1000000000E+03
         0.6370000000E+08     0.1000000000E+03
         0.6380000000E+08     0.1000000000E+03
         0.6390000000E+08     0.1000000000E+03
         0.6390000000E+08     0.1000000000E+03
         0.6400000000E+08     0.1000000000E+03
         0.6410000000E+08     0.1000000000E+03
         0.6420000000E+08     0.1000000000E+03
         0.6430000000E+08     0.1000000000E+03
         0.6440000000E+08     0.1000000000E+03
         0.6450000000E+08     0.1000000000E+03
         0.6450000000E+08     0.1000000000E+03
         0.6460000000E+08     0.1000000000E+03
         0.6470000000E+08     0.1000000000E+03
         0.6480000000E+08     0.1000000000E+03
         0.6490000000E+08     0.1000000000E+03
         0.6500000000E+08     0.1000000000E+03
         0.6510000000E+08     0.1000000000E+03
         0.6510000000E+08     0.1000000000E+03
         0.6520000000E+08     0.1000000000E+03
         0.6530000000E+08     0.1000000000E+03
         0.6540000000E+08     0.1000000000E+03
         0.6550000000E+08     0.1000000000E+03
         0.6560000000E+08     0.1000000000E+03
         0.6570000000E+08     0.1000000000E+03
         0.6580000000E+08     0.1000000000E+03
         0.6590000000E+08     0.1000000000E+03
         0.6600000000E+08     0.1000000000E+03
         0.6610000000E+08     0.1000000000E+03
         0.6610000000E+08     0.1000000000E+03
         0.6620000000E+08     0.1000000000E+03
         0.6630000000E+08     0.1000000000E+03
         0.6640000000E+08     0.1000000000E+03
         0.6650000000E+08     0.1000000000E+03
         0.6660000000E+08     0.1000000000E+03
         0.6670000000E+08     0.1000000000E+03
         0.6670000000E+08     0.1000000000E+03
         0.6680000000E+08     0.1000000000E+03
         0.6690000000E+08     0.1000000000E+03
         0.6700000000E+08     0.1000000000E+03
         0.6710000000E+08     0.1000000000E+03
         0.6720000000E+08     0.1000000000E+03
         0.6730000000E+08     0.1000000000E+03
         0.6730000000E+08     0.1000000000E+03
         0.6740000000E+08     0.1000000000E+03
         0.6750000000E+08     0.1000000000E+03
         0.6760000000E+08     0.1000000000E+03
         0.6770000000E+08     0.1000000000E+03
         0.6780000000E+08     0.1000000000E+03
         0.6790000000E+08     0.1000000000E+03
         0.6800000000E+08     0.1000000000E+03
         0.6810000000E+08     0.1000000000E+03
         0.6820000000E+08     0.1000000000E+03
         0.6830000000E+08     0.1000000000E+03
         0.6830000000E+08     0.1000000000E+03
         0.6840000000E+08     0.1000000000E+03
         0.6850000000E+08     0.1000000000E+03
         0.6860000000E+08     0.1000000000E+03
         0.6870000000E+08     0.1000000000E+03
         0.6880000000E+08     0.1000000000E+03
         0.6890000000E+08     0.1000000000E+03
         0.6890000000E+08     0.1000000000E+03
         0.6900000000E+08     0.1000000000E+03
         0.6910000000E+08     0.1000000000E+03
         0.6920000000E+08     0.1000000000E+03
         0.6930000000E+08     0.1000000000E+03
         0.6940000000E+08     0.1000000000E+03
         0.6950000000E+08     0.1000000000E+03
         0.6950000000E+08     0.1000000000E+03
         0.6960000000E+08     0.1000000000E+03
         0.6970000000E+08     0.1000000000E+03
         0.6980000000E+08     0.1000000000E+03
         0.6990000000E+08     0.1000000000E+03
         0.7000000000E+08     0.1000000000E+03
         0.7010000000E+08     0.1000000000E+03
         0.7020000000E+08     0.1000000000E+03
         0.7030000000E+08     0.1000000000E+03
         0.7040000000E+08     0.1000000000E+03
         0.7050000000E+08     0.1000000000E+03
         0.7050000000E+08     0.1000000000E+03
         0.7060000000E+08     0.1000000000E+03
         0.7070000000E+08     0.1000000000E+03
         0.7080000000E+08     0.1000000000E+03
         0.7090000000E+08     0.1000000000E+03
         0.7100000000E+08     0.1000000000E+03
         0.7110000000E+08     0.1000000000E+03
         0.7110000000E+08     0.1000000000E+03
         0.7120000000E+08     0.1000000000E+03
         0.7130000000E+08     0.1000000000E+03
         0.7140000000E+08     0.1000000000E+03
         0.7150000000E+08     0.1000000000E+03
         0.7160000000E+08     0.1000000000E+03
         0.7170000000E+08     0.1000000000E+03
         0.7170000000E+08     0.1000000000E+03
         0.7180000000E+08     0.1000000000E+03
         0.7190000000E+08     0.1000000000E+03
         0.7200000000E+08     0.1000000000E+03
         0.7210000000E+08     0.1000000000E+03
         0.7220000000E+08     0.1000000000E+03
         0.7230000000E+08     0.1000000000E+03
         0.7240000000E+08     0.1000000000E+03
         0.7250000000E+08     0.1000000000E+03
         0.7260000000E+08     0.1000000000E+03
         0.7270000000E+08     0.1000000000E+03
         0.7270000000E+08     0.1000000000E+03
         0.7280000000E+08     0.1000000000E+03
         0.7290000000E+08     0.1000000000E+03
         0.7300000000E+08     0.1000000000E+03
         0.7310000000E+08     0.1000000000E+03
         0.7320000000E+08     0.1000000000E+03
         0.7330000000E+08     0.1000000000E+03
         0.7330000000E+08     0.1000000000E+03
         0.7340000000E+08     0.1000000000E+03
         0.7350000000E+08     0.1000000000E+03
         0.7360000000E+08     0.1000000000E+03
         0.7370000000E+08     0.1000000000E+03
         0.7380000000E+08     0.1000000000E+03
         0.7390000000E+08     0.1000000000E+03
         0.7390000000E+08     0.1000000000E+03
         0.7400000000E+08     0.1000000000E+03
         0.7410000000E+08     0.1000000000E+03
         0.7420000000E+08     0.1000000000E+03
         0.7430000000E+08     0.1000000000E+03
         0.7440000000E+08     0.1000000000E+03
         0.7450000000E+08     0.1000000000E+03
         0.7460000000E+08     0.1000000000E+03
         0.7470000000E+08     0.1000000000E+03
         0.7480000000E+08     0.1000000000E+03
         0.7490000000E+08     0.1000000000E+03
         0.7490000000E+08     0.1000000000E+03
         0.7500000000E+08     0.1000000000E+03
         0.7510000000E+08     0.1000000000E+03
         0.7520000000E+08     0.1000000000E+03
         0.7530000000E+08     0.1000000000E+03
         0.7540000000E+08     0.1000000000E+03
         0.7550000000E+08     0.1000000000E+03
         0.7550000000E+08     0.1000000000E+03
         0.7560000000E+08     0.1000000000E+03
         0.7570000000E+08     0.1000000000E+03
         0.7580000000E+08     0.1000000000E+03
         0.7590000000E+08     0.1000000000E+03
         0.7600000000E+08     0.1000000000E+03
         0.7610000000E+08     0.1000000000E+03
         0.7610000000E+08     0.1000000000E+03
         0.7620000000E+08     0.1000000000E+03
         0.7630000000E+08     0.1000000000E+03
         0.7640000000E+08     0.1000000000E+03
         0.7650000000E+08     0.1000000000E+03
         0.7660000000E+08     0.1000000000E+03
         0.7670000000E+08     0.1000000000E+03
         0.7680000000E+08     0.1000000000E+03
         0.7690000000E+08     0.1000000000E+03
         0.7700000000E+08     0.1000000000E+03
         0.7710000000E+08     0.1000000000E+03
         0.7710000000E+08     0.1000000000E+03
         0.7720000000E+08     0.1000000000E+03
         0.7730000000E+08     0.1000000000E+03
         0.7740000000E+08     0.1000000000E+03
         0.7750000000E+08     0.1000000000E+03
         0.7760000000E+08     0.1000000000E+03
         0.7770000000E+08     0.1000000000E+03
         0.7770000000E+08     0.1000000000E+03
         0.7780000000E+08     0.1000000000E+03
         0.7790000000E+08     0.1000000000E+03
         0.7800000000E+08     0.1000000000E+03
         0.7810000000E+08     0.1000000000E+03
         0.7820000000E+08     0.1000000000E+03
         0.7830000000E+08     0.1000000000E+03
         0.7830000000E+08     0.1000000000E+03
         0.7840000000E+08     0.1000000000E+03
         0.7850000000E+08     0.1000000000E+03
         0.7860000000E+08     0.1000000000E+03
         0.7870000000E+08     0.1000000000E+03
         0.7880000000E+08     0.1000000000E+03
         0.7890000000E+08     0.1000000000E+03
         0.7900000000E+08     0.1000000000E+03
         0.7910000000E+08     0.1000000000E+03
         0.7920000000E+08     0.1000000000E+03
         0.7930000000E+08     0.1000000000E+03
         0.7930000000E+08     0.1000000000E+03
         0.7940000000E+08     0.1000000000E+03
         0.7950000000E+08     0.1000000000E+03
         0.7960000000E+08     0.1000000000E+03
         0.7970000000E+08     0.1000000000E+03
         0.7980000000E+08     0.1000000000E+03
         0.7990000000E+08     0.1000000000E+03
         0.7990000000E+08     0.1000000000E+03
         0.8000000000E+08     0.1000000000E+03
         0.8010000000E+08     0.1000000000E+03
         0.8020000000E+08     0.1000000000E+03
         0.8030000000E+08     0.1000000000E+03
         0.8040000000E+08     0.1000000000E+03
         0.8050000000E+08     0.1000000000E+03
         0.8050000000E+08     0.1000000000E+03
         0.8060000000E+08     0.1000000000E+03
         0.8070000000E+08     0.1000000000E+03
         0.8080000000E+08     0.1000000000E+03
         0.8090000000E+08     0.1000000000E+03
         0.8100000000E+08     0.1000000000E+03
         0.8110000000E+08     0.1000000000E+03
         0.8120000000E+08     0.1000000000E+03
         0.8130000000E+08     0.1000000000E+03
         0.8140000000E+08     0.1000000000E+03
         0.8150000000E+08     0.1000000000E+03
         0.8150000000E+08     0.1000000000E+03
         0.8160000000E+08     0.1000000000E+03
         0.8170000000E+08     0.1000000000E+03
         0.8180000000E+08     0.1000000000E+03
         0.8190000000E+08     0.1000000000E+03
         0.8200000000E+08     0.1000000000E+03
         0.8210000000E+08     0.1000000000E+03
         0.8210000000E+08     0.1000000000E+03
         0.8220000000E+08     0.1000000000E+03
         0.8230000000E+08     0.1000000000E+03
         0.8240000000E+08     0.1000000000E+03
         0.8250000000E+08     0.1000000000E+03
         0.8260000000E+08     0.1000000000E+03
         0.8270000000E+08     0.1000000000E+03
         0.8270000000E+08     0.1000000000E+03
         0.8280000000E+08     0.1000000000E+03
         0.8290000000E+08     0.1000000000E+03
         0.8300000000E+08     0.1000000000E+03
         0.8310000000E+08     0.1000000000E+03
         0.8320000000E+08     0.1000000000E+03
         0.8330000000E+08     0.1000000000E+03
         0.8340000000E+08     0.1000000000E+03
         0.8350000000E+08     0.1000000000E+03
         0.8360000000E+08     0.1000000000E+03
         0.8370000000E+08     0.1000000000E+03
         0.8370000000E+08     0.1000000000E+03
         0.8380000000E+08     0.1000000000E+03
         0.8390000000E+08     0.1000000000E+03
         0.8400000000E+08     0.1000000000E+03
         0.8410000000E+08     0.1000000000E+03
         0.8420000000E+08     0.1000000000E+03
         0.8430000000E+08     0.1000000000E+03
         0.8430000000E+08     0.1000000000E+03
         0.8440000000E+08     0.1000000000E+03
         0.8450000000E+08     0.1000000000E+03
         0.8460000000E+08     0.1000000000E+03
         0.8470000000E+08     0.1000000000E+03
         0.8480000000E+08     0.1000000000E+03
         0.8490000000E+08     0.1000000000E+03
         0.8490000000E+08     0.1000000000E+03
         0.8500000000E+08     0.1000000000E+03
         0.8510000000E+08     0.1000000000E+03
         0.8520000000E+08     0.1000000000E+03
         0.8530000000E+08     0.1000000000E+03
         0.8540000000E+08     0.1000000000E+03
         0.8550000000E+08     0.1000000000E+03
         0.8560000000E+08     0.1000000000E+03
         0.8570000000E+08     0.1000000000E+03
         0.8580000000E+08     0.1000000000E+03
         0.8590000000E+08     0.1000000000E+03
         0.8590000000E+08     0.1000000000E+03
         0.8600000000E+08     0.1000000000E+03
         0.8610000000E+08     0.1000000000E+03
         0.8620000000E+08     0.1000000000E+03
         0.8630000000E+08     0.1000000000E+03
         0.8640000000E+08     0.1000000000E+03
         0.8650000000E+08     0.1000000000E+03
         0.8650000000E+08     0.1000000000E+03
         0.8660000000E+08     0.1000000000E+03
         0.8670000000E+08     0.1000000000E+03
         0.8680000000E+08     0.1000000000E+03
         0.8690000000E+08     0.1000000000E+03
         0.8700000000E+08     0.1000000000E+03
         0.8710000000E+08     0.1000000000E+03
         0.8710000000E+08     0.1000000000E+03
         0.8720000000E+08     0.1000000000E+03
         0.8730000000E+08     0.1000000000E+03
         0.8740000000E+08     0.1000000000E+03
         0.8750000000E+08     0.1000000000E+03
         0.8760000000E+08     0.1000000000E+03
         0.8770000000E+08     0.1000000000E+03
         0.8780000000E+08     0.1000000000E+03
         0.8790000000E+08     0.1000000000E+03
         0.8800000000E+08     0.1000000000E+03
         0.8810000000E+08     0.1000000000E+03
         0.8810000000E+08     0.1000000000E+03
         0.8820000000E+08     0.1000000000E+03
         0.8830000000E+08     0.1000000000E+03
         0.8840000000E+08     0.1000000000E+03
         0.8850000000E+08     0.1000000000E+03
         0.8860000000E+08     0.1000000000E+03
         0.8870000000E+08     0.1000000000E+03
         0.8870000000E+08     0.1000000000E+03
         0.8880000000E+08     0.1000000000E+03
         0.8890000000E+08     0.1000000000E+03
         0.8900000000E+08     0.1000000000E+03
         0.8910000000E+08     0.1000000000E+03
         0.8920000000E+08     0.1000000000E+03
         0.8930000000E+08     0.1000000000E+03
         0.8930000000E+08     0.1000000000E+03
         0.8940000000E+08     0.1000000000E+03
         0.8950000000E+08     0.1000000000E+03
         0.8960000000E+08     0.1000000000E+03
         0.8970000000E+08     0.1000000000E+03
         0.8980000000E+08     0.1000000000E+03
         0.8990000000E+08     0.1000000000E+03
         0.9000000000E+08     0.1000000000E+03
         0.9010000000E+08     0.1000000000E+03
         0.9020000000E+08     0.1000000000E+03
         0.9030000000E+08     0.1000000000E+03
         0.9030000000E+08     0.1000000000E+03
         0.9040000000E+08     0.1000000000E+03
         0.9050000000E+08     0.1000000000E+03
         0.9060000000E+08     0.1000000000E+03
         0.9070000000E+08     0.1000000000E+03
         0.9080000000E+08     0.1000000000E+03
         0.9090000000E+08     0.1000000000E+03
         0.9090000000E+08     0.1000000000E+03
         0.9100000000E+08     0.1000000000E+03
         0.9110000000E+08     0.1000000000E+03
         0.9120000000E+08     0.1000000000E+03
         0.9130000000E+08     0.1000000000E+03
         0.9140000000E+08     0.1000000000E+03
         0.9150000000E+08     0.1000000000E+03
         0.9150000000E+08     0.1000000000E+03
         0.9160000000E+08     0.1000000000E+03
         0.9170000000E+08     0.1000000000E+03
         0.9180000000E+08     0.1000000000E+03
         0.9190000000E+08     0.1000000000E+03
         0.9200000000E+08     0.1000000000E+03
         0.9210000000E+08     0.1000000000E+03
         0.9220000000E+08     0.1000000000E+03
         0.9230000000E+08     0.1000000000E+03
         0.9240000000E+08     0.1000000000E+03
         0.9250000000E+08     0.1000000000E+03
         0.9250000000E+08     0.1000000000E+03
         0.9260000000E+08     0.1000000000E+03
         0.9270000000E+08     0.1000000000E+03
         0.9280000000E+08     0.1000000000E+03
         0.9290000000E+08     0.1000000000E+03
         0.9300000000E+08     0.1000000000E+03
         0.9310000000E+08     0.1000000000E+03
         0.9310000000E+08     0.1000000000E+03
         0.9320000000E+08     0.1000000000E+03
         0.9330000000E+08     0.1000000000E+03
         0.9340000000E+08     0.1000000000E+03
         0.9350000000E+08     0.1000000000E+03
         0.9360000000E+08     0.1000000000E+03
         0.9370000000E+08     0.1000000000E+03
         0.9370000000E+08     0.1000000000E+03
         0.9380000000E+08     0.1000000000E+03
         0.9390000000E+08     0.1000000000E+03
         0.9400000000E+08     0.1000000000E+03
         0.9410000000E+08     0.1000000000E+03
         0.9420000000E+08     0.1000000000E+03
         0.9430000000E+08     0.1000000000E+03
         0.9440000000E+08     0.1000000000E+03
         0.9450000000E+08     0.1000000000E+03
         0.9460000000E+08     0.1000000000E+03
         0.9470000000E+08     0.1000000000E+03
         0.9470000000E+08     0.1000000000E+03
         0.9480000000E+08     0.1000000000E+03
         0.9490000000E+08     0.1000000000E+03
         0.9500000000E+08     0.1000000000E+03
         0.9510000000E+08     0.1000000000E+03
         0.9520000000E+08     0.1000000000E+03
         0.9530000000E+08     0.1000000000E+03
         0.9530000000E+08     0.1000000000E+03
         0.9540000000E+08     0.1000000000E+03
         0.9550000000E+08     0.1000000000E+03
         0.9560000000E+08     0.1000000000E+03
         0.9570000000E+08     0.1000000000E+03
         0.9580000000E+08     0.1000000000E+03
         0.9590000000E+08     0.1000000000E+03
         0.9590000000E+08     0.1000000000E+03
         0.9600000000E+08     0.1000000000E+03
         0.9610000000E+08     0.1000000000E+03
         0.9620000000E+08     0.1000000000E+03
         0.9630000000E+08     0.1000000000E+03
         0.9640000000E+08     0.1000000000E+03
         0.9650000000E+08     0.1000000000E+03
         0.9660000000E+08     0.1000000000E+03
         0.9670000000E+08     0.1000000000E+03
         0.9680000000E+08     0.1000000000E+03
         0.9690000000E+08     0.1000000000E+03
         0.9690000000E+08     0.1000000000E+03
         0.9700000000E+08     0.1000000000E+03
         0.9710000000E+08     0.1000000000E+03
         0.9720000000E+08     0.1000000000E+03
         0.9730000000E+08     0.1000000000E+03
         0.9740000000E+08     0.1000000000E+03
         0.9750000000E+08     0.1000000000E+03
         0.9750000000E+08     0.1000000000E+03
         0.9760000000E+08     0.1000000000E+03
         0.9770000000E+08     0.1000000000E+03
         0.9780000000E+08     0.1000000000E+03
         0.9790000000E+08     0.1000000000E+03
         0.9800000000E+08     0.1000000000E+03
         0.9810000000E+08     0.1000000000E+03
         0.9810000000E+08     0.1000000000E+03
         0.9820000000E+08     0.1000000000E+03
         0.9830000000E+08     0.1000000000E+03
         0.9840000000E+08     0.1000000000E+03
         0.9850000000E+08     0.1000000000E+03
         0.9860000000E+08     0.1000000000E+03
         0.9870000000E+08     0.1000000000E+03
         0.9880000000E+08     0.1000000000E+03
         0.9890000000E+08     0.1000000000E+03
         0.9900000000E+08     0.1000000000E+03
         0.9910000000E+08     0.1000000000E+03
         0.9910000000E+08     0.1000000000E+03
         0.9920000000E+08     0.1000000000E+03
         0.9930000000E+08     0.1000000000E+03
         0.9940000000E+08     0.1000000000E+03
         0.9950000000E+08     0.1000000000E+03
         0.9960000000E+08     0.1000000000E+03
         0.9970000000E+08     0.1000000000E+03
         0.9970000000E+08     0.1000000000E+03
         0.9980000000E+08     0.1000000000E+03
         0.9990000000E+08     0.1000000000E+03
         0.1000000000E+09     0.1000000000E+03
         0.1001000000E+09     0.1000000000E+03
         0.1002000000E+09     0.1000000000E+03
         0.1003000000E+09     0.1000000000E+03
         0.1003000000E+09     0.1000000000E+03
         0.1004000000E+09     0.1000000000E+03
         0.1005000000E+09     0.1000000000E+03
         0.1006000000E+09     0.1000000000E+03
         0.1007000000E+09     0.1000000000E+03
         0.1008000000E+09     0.1000000000E+03
         0.1009000000E+09     0.1000000000E+03
         0.1010000000E+09     0.1000000000E+03
         0.1011000000E+09     0.1000000000E+03
         0.1012000000E+09     0.1000000000E+03
         0.1013000000E+09     0.1000000000E+03
         0.1013000000E+09     0.1000000000E+03
         0.1014000000E+09     0.1000000000E+03
         0.1015000000E+09     0.1000000000E+03
         0.1016000000E+09     0.1000000000E+03
         0.1017000000E+09     0.1000000000E+03
         0.1018000000E+09     0.1000000000E+03
         0.1019000000E+09     0.1000000000E+03
         0.1019000000E+09     0.1000000000E+03
         0.1020000000E+09     0.1000000000E+03
         0.1021000000E+09     0.1000000000E+03
         0.1022000000E+09     0.1000000000E+03
         0.1023000000E+09     0.1000000000E+03
         0.1024000000E+09     0.1000000000E+03
         0.1025000000E+09     0.1000000000E+03
         0.1025000000E+09     0.1000000000E+03
         0.1026000000E+09     0.1000000000E+03
         0.1027000000E+09     0.1000000000E+03
         0.1028000000E+09     0.1000000000E+03
         0.1029000000E+09     0.1000000000E+03
         0.1030000000E+09     0.1000000000E+03
         0.1031000000E+09     0.1000000000E+03
         0.1032000000E+09     0.1000000000E+03
         0.1033000000E+09     0.1000000000E+03
         0.1034000000E+09     0.1000000000E+03
         0.1035000000E+09     0.1000000000E+03
         0.1035000000E+09     0.1000000000E+03
         0.1036000000E+09     0.1000000000E+03
         0.1037000000E+09     0.1000000000E+03
         0.1038000000E+09     0.1000000000E+03
         0.1039000000E+09     0.1000000000E+03
         0.1040000000E+09     0.1000000000E+03
         0.1041000000E+09     0.1000000000E+03
         0.1041000000E+09     0.1000000000E+03
         0.1042000000E+09     0.1000000000E+03
         0.1043000000E+09     0.1000000000E+03
         0.1044000000E+09     0.1000000000E+03
         0.1045000000E+09     0.1000000000E+03
         0.1046000000E+09     0.1000000000E+03
         0.1047000000E+09     0.1000000000E+03
         0.1047000000E+09     0.1000000000E+03
         0.1048000000E+09     0.1000000000E+03
         0.1049000000E+09     0.1000000000E+03
         0.1050000000E+09     0.1000000000E+03
         0.1051000000E+09     0.1000000000E+03
         0.1052000000E+09     0.1000000000E+03
         0.1053000000E+09     0.1000000000E+03
         0.1054000000E+09     0.1000000000E+03
         0.1055000000E+09     0.1000000000E+03
         0.1056000000E+09     0.1000000000E+03
         0.1057000000E+09     0.1000000000E+03
         0.1057000000E+09     0.1000000000E+03
         0.1058000000E+09     0.1000000000E+03
         0.1059000000E+09     0.1000000000E+03
         0.1060000000E+09     0.1000000000E+03
         0.1061000000E+09     0.1000000000E+03
         0.1062000000E+09     0.1000000000E+03
         0.1063000000E+09     0.1000000000E+03
         0.1063000000E+09     0.1000000000E+03
         0.1064000000E+09     0.1000000000E+03
         0.1065000000E+09     0.1000000000E+03
         0.1066000000E+09     0.1000000000E+03
         0.1067000000E+09     0.1000000000E+03
         0.1068000000E+09     0.1000000000E+03
         0.1069000000E+09     0.1000000000E+03
         0.1069000000E+09     0.1000000000E+03
         0.1070000000E+09     0.1000000000E+03
         0.1071000000E+09     0.1000000000E+03
         0.1072000000E+09     0.1000000000E+03
         0.1073000000E+09     0.1000000000E+03
         0.1074000000E+09     0.1000000000E+03
         0.1075000000E+09     0.1000000000E+03
         0.1076000000E+09     0.1000000000E+03
         0.1077000000E+09     0.1000000000E+03
         0.1078000000E+09     0.1000000000E+03
         0.1079000000E+09     0.1000000000E+03
         0.1079000000E+09     0.1000000000E+03
         0.1080000000E+09     0.1000000000E+03
         0.1081000000E+09     0.1000000000E+03
         0.1082000000E+09     0.1000000000E+03
         0.1083000000E+09     0.1000000000E+03
         0.1084000000E+09     0.1000000000E+03
         0.1085000000E+09     0.1000000000E+03
         0.1085000000E+09     0.1000000000E+03
         0.1086000000E+09     0.1000000000E+03
         0.1087000000E+09     0.1000000000E+03
         0.1088000000E+09     0.1000000000E+03
         0.1089000000E+09     0.1000000000E+03
         0.1090000000E+09     0.1000000000E+03
         0.1091000000E+09     0.1000000000E+03
         0.1091000000E+09     0.1000000000E+03
         0.1092000000E+09     0.1000000000E+03
         0.1093000000E+09     0.1000000000E+03
         0.1094000000E+09     0.1000000000E+03
         0.1095000000E+09     0.1000000000E+03
         0.1096000000E+09     0.1000000000E+03
         0.1097000000E+09     0.1000000000E+03
         0.1098000000E+09     0.1000000000E+03
         0.1099000000E+09     0.1000000000E+03
         0.1100000000E+09     0.1000000000E+03
         0.1101000000E+09     0.1000000000E+03
         0.1101000000E+09     0.1000000000E+03
         0.1102000000E+09     0.1000000000E+03
         0.1103000000E+09     0.1000000000E+03
         0.1104000000E+09     0.1000000000E+03
         0.1105000000E+09     0.1000000000E+03
         0.1106000000E+09     0.1000000000E+03
         0.1107000000E+09     0.1000000000E+03
         0.1107000000E+09     0.1000000000E+03
         0.1108000000E+09     0.1000000000E+03
         0.1109000000E+09     0.1000000000E+03
         0.1110000000E+09     0.1000000000E+03
         0.1111000000E+09     0.1000000000E+03
         0.1112000000E+09     0.1000000000E+03
         0.1113000000E+09     0.1000000000E+03
         0.1113000000E+09     0.1000000000E+03
         0.1114000000E+09     0.1000000000E+03
         0.1115000000E+09     0.1000000000E+03
         0.1116000000E+09     0.1000000000E+03
         0.1117000000E+09     0.1000000000E+03
         0.1118000000E+09     0.1000000000E+03
         0.1119000000E+09     0.1000000000E+03
         0.1120000000E+09     0.1000000000E+03
         0.1121000000E+09     0.1000000000E+03
         0.1122000000E+09     0.1000000000E+03
         0.1123000000E+09     0.1000000000E+03
         0.1123000000E+09     0.1000000000E+03
         0.1124000000E+09     0.1000000000E+03
         0.1125000000E+09     0.1000000000E+03
         0.1126000000E+09     0.1000000000E+03
         0.1127000000E+09     0.1000000000E+03
         0.1128000000E+09     0.1000000000E+03
         0.1129000000E+09     0.1000000000E+03
         0.1129000000E+09     0.1000000000E+03
         0.1130000000E+09     0.1000000000E+03
         0.1131000000E+09     0.1000000000E+03
         0.1132000000E+09     0.1000000000E+03
         0.1133000000E+09     0.1000000000E+03
         0.1134000000E+09     0.1000000000E+03
         0.1135000000E+09     0.1000000000E+03
         0.1135000000E+09     0.1000000000E+03
         0.1136000000E+09     0.1000000000E+03
         0.1137000000E+09     0.1000000000E+03
         0.1138000000E+09     0.1000000000E+03
         0.1139000000E+09     0.1000000000E+03
         0.1140000000E+09     0.1000000000E+03
         0.1141000000E+09     0.1000000000E+03
         0.1142000000E+09     0.1000000000E+03
         0.1143000000E+09     0.1000000000E+03
         0.1144000000E+09     0.1000000000E+03
         0.1145000000E+09     0.1000000000E+03
         0.1145000000E+09     0.1000000000E+03
         0.1146000000E+09     0.1000000000E+03
         0.1147000000E+09     0.1000000000E+03
         0.1148000000E+09     0.1000000000E+03
         0.1149000000E+09     0.1000000000E+03
         0.1150000000E+09     0.1000000000E+03
         0.1151000000E+09     0.1000000000E+03
         0.1151000000E+09     0.1000000000E+03
         0.1152000000E+09     0.1000000000E+03
         0.1153000000E+09     0.1000000000E+03
         0.1154000000E+09     0.1000000000E+03
         0.1155000000E+09     0.1000000000E+03
         0.1156000000E+09     0.1000000000E+03
         0.1157000000E+09     0.1000000000E+03
         0.1157000000E+09     0.1000000000E+03
         0.1158000000E+09     0.1000000000E+03
         0.1159000000E+09     0.1000000000E+03
         0.1160000000E+09     0.1000000000E+03
         0.1161000000E+09     0.1000000000E+03
         0.1162000000E+09     0.1000000000E+03
         0.1163000000E+09     0.1000000000E+03
         0.1164000000E+09     0.1000000000E+03
         0.1165000000E+09     0.1000000000E+03
         0.1166000000E+09     0.1000000000E+03
         0.1167000000E+09     0.1000000000E+03
         0.1167000000E+09     0.1000000000E+03
         0.1168000000E+09     0.1000000000E+03
         0.1169000000E+09     0.1000000000E+03
         0.1170000000E+09     0.1000000000E+03
         0.1171000000E+09     0.1000000000E+03
         0.1172000000E+09     0.1000000000E+03
         0.1173000000E+09     0.1000000000E+03
         0.1173000000E+09     0.1000000000E+03
         0.1174000000E+09     0.1000000000E+03
         0.1175000000E+09     0.1000000000E+03
         0.1176000000E+09     0.1000000000E+03
         0.1177000000E+09     0.1000000000E+03
         0.1178000000E+09     0.1000000000E+03
         0.1179000000E+09     0.1000000000E+03
         0.1179000000E+09     0.1000000000E+03
         0.1180000000E+09     0.1000000000E+03
         0.1181000000E+09     0.1000000000E+03
         0.1182000000E+09     0.1000000000E+03
         0.1183000000E+09     0.1000000000E+03
         0.1184000000E+09     0.1000000000E+03
         0.1185000000E+09     0.1000000000E+03
         0.1186000000E+09     0.1000000000E+03
         0.1187000000E+09     0.1000000000E+03
         0.1188000000E+09     0.1000000000E+03
         0.1189000000E+09     0.1000000000E+03
         0.1189000000E+09     0.1000000000E+03
         0.1190000000E+09     0.1000000000E+03
         0.1191000000E+09     0.1000000000E+03
         0.1192000000E+09     0.1000000000E+03
         0.1193000000E+09     0.1000000000E+03
         0.1194000000E+09     0.1000000000E+03
         0.1195000000E+09     0.1000000000E+03
         0.1195000000E+09     0.1000000000E+03
         0.1196000000E+09     0.1000000000E+03
         0.1197000000E+09     0.1000000000E+03
         0.1198000000E+09     0.1000000000E+03
         0.1199000000E+09     0.1000000000E+03
         0.1200000000E+09     0.1000000000E+03
         0.1201000000E+09     0.1000000000E+03
         0.1201000000E+09     0.1000000000E+03
         0.1202000000E+09     0.1000000000E+03
         0.1203000000E+09     0.1000000000E+03
         0.1204000000E+09     0.1000000000E+03
         0.1205000000E+09     0.1000000000E+03
         0.1206000000E+09     0.1000000000E+03
         0.1207000000E+09     0.1000000000E+03
         0.1208000000E+09     0.1000000000E+03
         0.1209000000E+09     0.1000000000E+03
         0.1210000000E+09     0.1000000000E+03
         0.1211000000E+09     0.1000000000E+03
         0.1211000000E+09     0.1000000000E+03
         0.1212000000E+09     0.1000000000E+03
         0.1213000000E+09     0.1000000000E+03
         0.1214000000E+09     0.1000000000E+03
         0.1215000000E+09     0.1000000000E+03
         0.1216000000E+09     0.1000000000E+03
         0.1217000000E+09     0.1000000000E+03
         0.1217000000E+09     0.1000000000E+03
         0.1218000000E+09     0.1000000000E+03
         0.1219000000E+09     0.1000000000E+03
         0.1220000000E+09     0.1000000000E+03
         0.1221000000E+09     0.1000000000E+03
         0.1222000000E+09     0.1000000000E+03
         0.1223000000E+09     0.1000000000E+03
         0.1223000000E+09     0.1000000000E+03
         0.1224000000E+09     0.1000000000E+03
         0.1225000000E+09     0.1000000000E+03
         0.1226000000E+09     0.1000000000E+03
         0.1227000000E+09     0.1000000000E+03
         0.1228000000E+09     0.1000000000E+03
         0.1229000000E+09     0.1000000000E+03
         0.1230000000E+09     0.1000000000E+03
         0.1231000000E+09     0.1000000000E+03
         0.1232000000E+09     0.1000000000E+03
         0.1233000000E+09     0.1000000000E+03
         0.1233000000E+09     0.1000000000E+03
         0.1234000000E+09     0.1000000000E+03
         0.1235000000E+09     0.1000000000E+03
         0.1236000000E+09     0.1000000000E+03
         0.1237000000E+09     0.1000000000E+03
         0.1238000000E+09     0.1000000000E+03
         0.1239000000E+09     0.1000000000E+03
         0.1239000000E+09     0.1000000000E+03
         0.1240000000E+09     0.1000000000E+03
         0.1241000000E+09     0.1000000000E+03
         0.1242000000E+09     0.1000000000E+03
         0.1243000000E+09     0.1000000000E+03
         0.1244000000E+09     0.1000000000E+03
         0.1245000000E+09     0.1000000000E+03
         0.1245000000E+09     0.1000000000E+03
         0.1246000000E+09     0.1000000000E+03
         0.1247000000E+09     0.1000000000E+03
         0.1248000000E+09     0.1000000000E+03
         0.1249000000E+09     0.1000000000E+03
         0.1250000000E+09     0.1000000000E+03
         0.1251000000E+09     0.1000000000E+03
         0.1252000000E+09     0.1000000000E+03
         0.1253000000E+09     0.1000000000E+03
         0.1254000000E+09     0.1000000000E+03
         0.1255000000E+09     0.1000000000E+03
         0.1255000000E+09     0.1000000000E+03
         0.1256000000E+09     0.1000000000E+03
         0.1257000000E+09     0.1000000000E+03
         0.1258000000E+09     0.1000000000E+03
         0.1259000000E+09     0.1000000000E+03
         0.1260000000E+09     0.1000000000E+03



            AREAL INFILTRATION RATE
 READING ON UNIT   19 WITH FORMAT: (10F4.0)            

            1           2           3           4           5           6           7           8           9          10
 ........................................................................................................................
   1   1.0000E-10  2.0000E-10   0.000       0.000       0.000       0.000       0.000       0.000       0.000       0.000    
   2   2.0000E-10  1.0000E-10  2.0000E-10   0.000       0.000      8.0000E-10  8.0000E-10  5.0000E-10   0.000       0.000    
   3    0.000      5.0000E-10  1.0000E-10  1.0000E-10  8.0000E-10  8.0000E-10  5.0000E-10  5.0000E-10   0.000       0.000    
   4   8.0000E-10  5.0000E-10  1.0000E-10  1.0000E-10  1.0000E-10  1.0000E-10  1.0000E-10  1.0000E-10  2.0000E-10   0.000    
   5   8.0000E-10  5.0000E-10  1.0000E-10  1.0000E-10  1.0000E-10  1.0000E-10  1.0000E-10  1.0000E-10  1.0000E-10  1.0000E-10
   6   8.0000E-10  5.0000E-10  5.0000E-10  2.0000E-10  2.0000E-10  1.0000E-10  1.0000E-10  1.0000E-10  1.0000E-10  5.0000E-10
   7   8.0000E-10  5.0000E-10  5.0000E-10  2.0000E-10  2.0000E-10  1.0000E-10  1.0000E-10  2.0000E-10  2.0000E-10   0.000    
   8    0.000      5.0000E-10  5.0000E-10  2.0000E-10  2.0000E-10  1.0000E-10  1.0000E-10  2.0000E-10  5.0000E-10   0.000    
   9    0.000      5.0000E-10  5.0000E-10  2.0000E-10  2.0000E-10  1.0000E-10  1.0000E-10  2.0000E-10  5.0000E-10   0.000    
  10    0.000      5.0000E-10  5.0000E-10  2.0000E-10  2.0000E-10  1.0000E-10  1.0000E-10  2.0000E-10  5.0000E-10  8.0000E-10
  11    0.000      1.0000E-10  1.0000E-10  1.0000E-10  1.0000E-10  1.0000E-10  1.0000E-10  2.0000E-10  5.0000E-10   0.000    
  12   1.0000E-10  1.0000E-10  1.0000E-10  1.0000E-10  1.0000E-10  1.0000E-10  1.0000E-10  1.0000E-10  2.0000E-10   0.000    
  13   1.0000E-10  1.0000E-10  2.0000E-10  2.0000E-10  2.0000E-10  2.0000E-10  2.0000E-10  1.0000E-10  1.0000E-10   0.000    
  14    0.000      2.0000E-10  5.0000E-10  5.0000E-10  5.0000E-10  5.0000E-10  5.0000E-10  2.0000E-10  1.0000E-10   0.000    
  15    0.000       0.000      8.0000E-10  8.0000E-10  8.0000E-10  8.0000E-10   0.000       0.000       0.000       0.000    

                  ET RATE =  1.000000E-08

      ET EXTINCTION DEPTH =  0.500000    

 EXTINCTION WATER CONTENT =  0.200000    

EXTINCTION WATER CONTENT FOR CELL AT ROW     1, COLUMN     1 IS LESS THAN RESIDUAL WATER CONTENT-- SETTING EXTINCTION WATER CONTENT EQUAL TO RESIDUAL WATER CONTENT

EXTINCTION WATER CONTENT FOR CELL AT ROW     1, COLUMN     2 IS LESS THAN RESIDUAL WATER CONTENT-- SETTING EXTINCTION WATER CONTENT EQUAL TO RESIDUAL WATER CONTENT

EXTINCTION WATER CONTENT FOR CELL AT ROW     2, COLUMN     1 IS LESS THAN RESIDUAL WATER CONTENT-- SETTING EXTINCTION WATER CONTENT EQUAL TO RESIDUAL WATER CONTENT

EXTINCTION WATER CONTENT FOR CELL AT ROW     2, COLUMN     2 IS LESS THAN RESIDUAL WATER CONTENT-- SETTING EXTINCTION WATER CONTENT EQUAL TO RESIDUAL WATER CONTENT

EXTINCTION WATER CONTENT FOR CELL AT ROW     2, COLUMN     3 IS LESS THAN RESIDUAL WATER CONTENT-- SETTING EXTINCTION WATER CONTENT EQUAL TO RESIDUAL WATER CONTENT

EXTINCTION WATER CONTENT FOR CELL AT ROW     2, COLUMN     6 IS LESS THAN RESIDUAL WATER CONTENT-- SETTING EXTINCTION WATER CONTENT EQUAL TO RESIDUAL WATER CONTENT

EXTINCTION WATER CONTENT FOR CELL AT ROW     2, COLUMN     7 IS LESS THAN RESIDUAL WATER CONTENT-- SETTING EXTINCTION WATER CONTENT EQUAL TO RESIDUAL WATER CONTENT

EXTINCTION WATER CONTENT FOR CELL AT ROW     2, COLUMN     8 IS LESS THAN RESIDUAL WATER CONTENT-- SETTING EXTINCTION WATER CONTENT EQUAL TO RESIDUAL WATER CONTENT

EXTINCTION WATER CONTENT FOR CELL AT ROW     3, COLUMN     2 IS LESS THAN RESIDUAL WATER CONTENT-- SETTING EXTINCTION WATER CONTENT EQUAL TO RESIDUAL WATER CONTENT

EXTINCTION WATER CONTENT FOR CELL AT ROW     3, COLUMN     3 IS LESS THAN RESIDUAL WATER CONTENT-- SETTING EXTINCTION WATER CONTENT EQUAL TO RESIDUAL WATER CONTENT

EXTINCTION WATER CONTENT FOR CELL AT ROW     3, COLUMN     4 IS LESS THAN RESIDUAL WATER CONTENT-- SETTING EXTINCTION WATER CONTENT EQUAL TO RESIDUAL WATER CONTENT

EXTINCTION WATER CONTENT FOR CELL AT ROW     3, COLUMN     5 IS LESS THAN RESIDUAL WATER CONTENT-- SETTING EXTINCTION WATER CONTENT EQUAL TO RESIDUAL WATER CONTENT

EXTINCTION WATER CONTENT FOR CELL AT ROW     3, COLUMN     6 IS LESS THAN RESIDUAL WATER CONTENT-- SETTING EXTINCTION WATER CONTENT EQUAL TO RESIDUAL WATER CONTENT

EXTINCTION WATER CONTENT FOR CELL AT ROW     3, COLUMN     7 IS LESS THAN RESIDUAL WATER CONTENT-- SETTING EXTINCTION WATER CONTENT EQUAL TO RESIDUAL WATER CONTENT

EXTINCTION WATER CONTENT FOR CELL AT ROW     3, COLUMN     8 IS LESS THAN RESIDUAL WATER CONTENT-- SETTING EXTINCTION WATER CONTENT EQUAL TO RESIDUAL WATER CONTENT

EXTINCTION WATER CONTENT FOR CELL AT ROW     4, COLUMN     1 IS LESS THAN RESIDUAL WATER CONTENT-- SETTING EXTINCTION WATER CONTENT EQUAL TO RESIDUAL WATER CONTENT

EXTINCTION WATER CONTENT FOR CELL AT ROW     4, COLUMN     2 IS LESS THAN RESIDUAL WATER CONTENT-- SETTING EXTINCTION WATER CONTENT EQUAL TO RESIDUAL WATER CONTENT

EXTINCTION WATER CONTENT FOR CELL AT ROW     4, COLUMN     3 IS LESS THAN RESIDUAL WATER CONTENT-- SETTING EXTINCTION WATER CONTENT EQUAL TO RESIDUAL WATER CONTENT

EXTINCTION WATER CONTENT FOR CELL AT ROW     4, COLUMN     4 IS LESS THAN RESIDUAL WATER CONTENT-- SETTING EXTINCTION WATER CONTENT EQUAL TO RESIDUAL WATER CONTENT

EXTINCTION WATER CONTENT FOR CELL AT ROW     4, COLUMN     5 IS LESS THAN RESIDUAL WATER CONTENT-- SETTING EXTINCTION WATER CONTENT EQUAL TO RESIDUAL WATER CONTENT

EXTINCTION WATER CONTENT FOR CELL AT ROW     4, COLUMN     6 IS LESS THAN RESIDUAL WATER CONTENT-- SETTING EXTINCTION WATER CONTENT EQUAL TO RESIDUAL WATER CONTENT

EXTINCTION WATER CONTENT FOR CELL AT ROW     4, COLUMN     7 IS LESS THAN RESIDUAL WATER CONTENT-- SETTING EXTINCTION WATER CONTENT EQUAL TO RESIDUAL WATER CONTENT

EXTINCTION WATER CONTENT FOR CELL AT ROW     4, COLUMN     8 IS LESS THAN RESIDUAL WATER CONTENT-- SETTING EXTINCTION WATER CONTENT EQUAL TO RESIDUAL WATER CONTENT

EXTINCTION WATER CONTENT FOR CELL AT ROW     4, COLUMN     9 IS LESS THAN RESIDUAL WATER CONTENT-- SETTING EXTINCTION WATER CONTENT EQUAL TO RESIDUAL WATER CONTENT

EXTINCTION WATER CONTENT FOR CELL AT ROW     5, COLUMN     1 IS LESS THAN RESIDUAL WATER CONTENT-- SETTING EXTINCTION WATER CONTENT EQUAL TO RESIDUAL WATER CONTENT

EXTINCTION WATER CONTENT FOR CELL AT ROW     5, COLUMN     2 IS LESS THAN RESIDUAL WATER CONTENT-- SETTING EXTINCTION WATER CONTENT EQUAL TO RESIDUAL WATER CONTENT

EXTINCTION WATER CONTENT FOR CELL AT ROW     5, COLUMN     3 IS LESS THAN RESIDUAL WATER CONTENT-- SETTING EXTINCTION WATER CONTENT EQUAL TO RESIDUAL WATER CONTENT

EXTINCTION WATER CONTENT FOR CELL AT ROW     5, COLUMN     4 IS LESS THAN RESIDUAL WATER CONTENT-- SETTING EXTINCTION WATER CONTENT EQUAL TO RESIDUAL WATER CONTENT

EXTINCTION WATER CONTENT FOR CELL AT ROW     5, COLUMN     5 IS LESS THAN RESIDUAL WATER CONTENT-- SETTING EXTINCTION WATER CONTENT EQUAL TO RESIDUAL WATER CONTENT

EXTINCTION WATER CONTENT FOR CELL AT ROW     5, COLUMN     6 IS LESS THAN RESIDUAL WATER CONTENT-- SETTING EXTINCTION WATER CONTENT EQUAL TO RESIDUAL WATER CONTENT

EXTINCTION WATER CONTENT FOR CELL AT ROW     5, COLUMN     7 IS LESS THAN RESIDUAL WATER CONTENT-- SETTING EXTINCTION WATER CONTENT EQUAL TO RESIDUAL WATER CONTENT

EXTINCTION WATER CONTENT FOR CELL AT ROW     5, COLUMN     8 IS LESS THAN RESIDUAL WATER CONTENT-- SETTING EXTINCTION WATER CONTENT EQUAL TO RESIDUAL WATER CONTENT

EXTINCTION WATER CONTENT FOR CELL AT ROW     5, COLUMN     9 IS LESS THAN RESIDUAL WATER CONTENT-- SETTING EXTINCTION WATER CONTENT EQUAL TO RESIDUAL WATER CONTENT

EXTINCTION WATER CONTENT FOR CELL AT ROW     5, COLUMN    10 IS LESS THAN RESIDUAL WATER CONTENT-- SETTING EXTINCTION WATER CONTENT EQUAL TO RESIDUAL WATER CONTENT

EXTINCTION WATER CONTENT FOR CELL AT ROW     6, COLUMN     1 IS LESS THAN RESIDUAL WATER CONTENT-- SETTING EXTINCTION WATER CONTENT EQUAL TO RESIDUAL WATER CONTENT

EXTINCTION WATER CONTENT FOR CELL AT ROW     6, COLUMN     2 IS LESS THAN RESIDUAL WATER CONTENT-- SETTING EXTINCTION WATER CONTENT EQUAL TO RESIDUAL WATER CONTENT

EXTINCTION WATER CONTENT FOR CELL AT ROW     6, COLUMN     3 IS LESS THAN RESIDUAL WATER CONTENT-- SETTING EXTINCTION WATER CONTENT EQUAL TO RESIDUAL WATER CONTENT

EXTINCTION WATER CONTENT FOR CELL AT ROW     6, COLUMN     4 IS LESS THAN RESIDUAL WATER CONTENT-- SETTING EXTINCTION WATER CONTENT EQUAL TO RESIDUAL WATER CONTENT

EXTINCTION WATER CONTENT FOR CELL AT ROW     6, COLUMN     5 IS LESS THAN RESIDUAL WATER CONTENT-- SETTING EXTINCTION WATER CONTENT EQUAL TO RESIDUAL WATER CONTENT

EXTINCTION WATER CONTENT FOR CELL AT ROW     6, COLUMN     6 IS LESS THAN RESIDUAL WATER CONTENT-- SETTING EXTINCTION WATER CONTENT EQUAL TO RESIDUAL WATER CONTENT

EXTINCTION WATER CONTENT FOR CELL AT ROW     6, COLUMN     7 IS LESS THAN RESIDUAL WATER CONTENT-- SETTING EXTINCTION WATER CONTENT EQUAL TO RESIDUAL WATER CONTENT

EXTINCTION WATER CONTENT FOR CELL AT ROW     6, COLUMN     8 IS LESS THAN RESIDUAL WATER CONTENT-- SETTING EXTINCTION WATER CONTENT EQUAL TO RESIDUAL WATER CONTENT

EXTINCTION WATER CONTENT FOR CELL AT ROW     6, COLUMN     9 IS LESS THAN RESIDUAL WATER CONTENT-- SETTING EXTINCTION WATER CONTENT EQUAL TO RESIDUAL WATER CONTENT

EXTINCTION WATER CONTENT FOR CELL AT ROW     6, COLUMN    10 IS LESS THAN RESIDUAL WATER CONTENT-- SETTING EXTINCTION WATER CONTENT EQUAL TO RESIDUAL WATER CONTENT

EXTINCTION WATER CONTENT FOR CELL AT ROW     7, COLUMN     1 IS LESS THAN RESIDUAL WATER CONTENT-- SETTING EXTINCTION WATER CONTENT EQUAL TO RESIDUAL WATER CONTENT

EXTINCTION WATER CONTENT FOR CELL AT ROW     7, COLUMN     2 IS LESS THAN RESIDUAL WATER CONTENT-- SETTING EXTINCTION WATER CONTENT EQUAL TO RESIDUAL WATER CONTENT

EXTINCTION WATER CONTENT FOR CELL AT ROW     7, COLUMN     3 IS LESS THAN RESIDUAL WATER CONTENT-- SETTING EXTINCTION WATER CONTENT EQUAL TO RESIDUAL WATER CONTENT

EXTINCTION WATER CONTENT FOR CELL AT ROW     7, COLUMN     4 IS LESS THAN RESIDUAL WATER CONTENT-- SETTING EXTINCTION WATER CONTENT EQUAL TO RESIDUAL WATER CONTENT

EXTINCTION WATER CONTENT FOR CELL AT ROW     7, COLUMN     5 IS LESS THAN RESIDUAL WATER CONTENT-- SETTING EXTINCTION WATER CONTENT EQUAL TO RESIDUAL WATER CONTENT

EXTINCTION WATER CONTENT FOR CELL AT ROW     7, COLUMN     6 IS LESS THAN RESIDUAL WATER CONTENT-- SETTING EXTINCTION WATER CONTENT EQUAL TO RESIDUAL WATER CONTENT

EXTINCTION WATER CONTENT FOR CELL AT ROW     7, COLUMN     7 IS LESS THAN RESIDUAL WATER CONTENT-- SETTING EXTINCTION WATER CONTENT EQUAL TO RESIDUAL WATER CONTENT

EXTINCTION WATER CONTENT FOR CELL AT ROW     7, COLUMN     8 IS LESS THAN RESIDUAL WATER CONTENT-- SETTING EXTINCTION WATER CONTENT EQUAL TO RESIDUAL WATER CONTENT

EXTINCTION WATER CONTENT FOR CELL AT ROW     7, COLUMN     9 IS LESS THAN RESIDUAL WATER CONTENT-- SETTING EXTINCTION WATER CONTENT EQUAL TO RESIDUAL WATER CONTENT

EXTINCTION WATER CONTENT FOR CELL AT ROW     8, COLUMN     2 IS LESS THAN RESIDUAL WATER CONTENT-- SETTING EXTINCTION WATER CONTENT EQUAL TO RESIDUAL WATER CONTENT

EXTINCTION WATER CONTENT FOR CELL AT ROW     8, COLUMN     3 IS LESS THAN RESIDUAL WATER CONTENT-- SETTING EXTINCTION WATER CONTENT EQUAL TO RESIDUAL WATER CONTENT

EXTINCTION WATER CONTENT FOR CELL AT ROW     8, COLUMN     4 IS LESS THAN RESIDUAL WATER CONTENT-- SETTING EXTINCTION WATER CONTENT EQUAL TO RESIDUAL WATER CONTENT

EXTINCTION WATER CONTENT FOR CELL AT ROW     8, COLUMN     5 IS LESS THAN RESIDUAL WATER CONTENT-- SETTING EXTINCTION WATER CONTENT EQUAL TO RESIDUAL WATER CONTENT

EXTINCTION WATER CONTENT FOR CELL AT ROW     8, COLUMN     6 IS LESS THAN RESIDUAL WATER CONTENT-- SETTING EXTINCTION WATER CONTENT EQUAL TO RESIDUAL WATER CONTENT

EXTINCTION WATER CONTENT FOR CELL AT ROW     8, COLUMN     7 IS LESS THAN RESIDUAL WATER CONTENT-- SETTING EXTINCTION WATER CONTENT EQUAL TO RESIDUAL WATER CONTENT

EXTINCTION WATER CONTENT FOR CELL AT ROW     8, COLUMN     8 IS LESS THAN RESIDUAL WATER CONTENT-- SETTING EXTINCTION WATER CONTENT EQUAL TO RESIDUAL WATER CONTENT

EXTINCTION WATER CONTENT FOR CELL AT ROW     8, COLUMN     9 IS LESS THAN RESIDUAL WATER CONTENT-- SETTING EXTINCTION WATER CONTENT EQUAL TO RESIDUAL WATER CONTENT

EXTINCTION WATER CONTENT FOR CELL AT ROW     9, COLUMN     2 IS LESS THAN RESIDUAL WATER CONTENT-- SETTING EXTINCTION WATER CONTENT EQUAL TO RESIDUAL WATER CONTENT

EXTINCTION WATER CONTENT FOR CELL AT ROW     9, COLUMN     3 IS LESS THAN RESIDUAL WATER CONTENT-- SETTING EXTINCTION WATER CONTENT EQUAL TO RESIDUAL WATER CONTENT

EXTINCTION WATER CONTENT FOR CELL AT ROW     9, COLUMN     4 IS LESS THAN RESIDUAL WATER CONTENT-- SETTING EXTINCTION WATER CONTENT EQUAL TO RESIDUAL WATER CONTENT

EXTINCTION WATER CONTENT FOR CELL AT ROW     9, COLUMN     5 IS LESS THAN RESIDUAL WATER CONTENT-- SETTING EXTINCTION WATER CONTENT EQUAL TO RESIDUAL WATER CONTENT

EXTINCTION WATER CONTENT FOR CELL AT ROW     9, COLUMN     6 IS LESS THAN RESIDUAL WATER CONTENT-- SETTING EXTINCTION WATER CONTENT EQUAL TO RESIDUAL WATER CONTENT

EXTINCTION WATER CONTENT FOR CELL AT ROW     9, COLUMN     7 IS LESS THAN RESIDUAL WATER CONTENT-- SETTING EXTINCTION WATER CONTENT EQUAL TO RESIDUAL WATER CONTENT

EXTINCTION WATER CONTENT FOR CELL AT ROW     9, COLUMN     8 IS LESS THAN RESIDUAL WATER CONTENT-- SETTING EXTINCTION WATER CONTENT EQUAL TO RESIDUAL WATER CONTENT

EXTINCTION WATER CONTENT FOR CELL AT ROW     9, COLUMN     9 IS LESS THAN RESIDUAL WATER CONTENT-- SETTING EXTINCTION WATER CONTENT EQUAL TO RESIDUAL WATER CONTENT

EXTINCTION WATER CONTENT FOR CELL AT ROW    10, COLUMN     2 IS LESS THAN RESIDUAL WATER CONTENT-- SETTING EXTINCTION WATER CONTENT EQUAL TO RESIDUAL WATER CONTENT

EXTINCTION WATER CONTENT FOR CELL AT ROW    10, COLUMN     3 IS LESS THAN RESIDUAL WATER CONTENT-- SETTING EXTINCTION WATER CONTENT EQUAL TO RESIDUAL WATER CONTENT

EXTINCTION WATER CONTENT FOR CELL AT ROW    10, COLUMN     4 IS LESS THAN RESIDUAL WATER CONTENT-- SETTING EXTINCTION WATER CONTENT EQUAL TO RESIDUAL WATER CONTENT

EXTINCTION WATER CONTENT FOR CELL AT ROW    10, COLUMN     5 IS LESS THAN RESIDUAL WATER CONTENT-- SETTING EXTINCTION WATER CONTENT EQUAL TO RESIDUAL WATER CONTENT

EXTINCTION WATER CONTENT FOR CELL AT ROW    10, COLUMN     6 IS LESS THAN RESIDUAL WATER CONTENT-- SETTING EXTINCTION WATER CONTENT EQUAL TO RESIDUAL WATER CONTENT

EXTINCTION WATER CONTENT FOR CELL AT ROW    10, COLUMN     7 IS LESS THAN RESIDUAL WATER CONTENT-- SETTING EXTINCTION WATER CONTENT EQUAL TO RESIDUAL WATER CONTENT

EXTINCTION WATER CONTENT FOR CELL AT ROW    10, COLUMN     8 IS LESS THAN RESIDUAL WATER CONTENT-- SETTING EXTINCTION WATER CONTENT EQUAL TO RESIDUAL WATER CONTENT

EXTINCTION WATER CONTENT FOR CELL AT ROW    10, COLUMN     9 IS LESS THAN RESIDUAL WATER CONTENT-- SETTING EXTINCTION WATER CONTENT EQUAL TO RESIDUAL WATER CONTENT

EXTINCTION WATER CONTENT FOR CELL AT ROW    10, COLUMN    10 IS LESS THAN RESIDUAL WATER CONTENT-- SETTING EXTINCTION WATER CONTENT EQUAL TO RESIDUAL WATER CONTENT

EXTINCTION WATER CONTENT FOR CELL AT ROW    11, COLUMN     2 IS LESS THAN RESIDUAL WATER CONTENT-- SETTING EXTINCTION WATER CONTENT EQUAL TO RESIDUAL WATER CONTENT

EXTINCTION WATER CONTENT FOR CELL AT ROW    11, COLUMN     3 IS LESS THAN RESIDUAL WATER CONTENT-- SETTING EXTINCTION WATER CONTENT EQUAL TO RESIDUAL WATER CONTENT

EXTINCTION WATER CONTENT FOR CELL AT ROW    11, COLUMN     4 IS LESS THAN RESIDUAL WATER CONTENT-- SETTING EXTINCTION WATER CONTENT EQUAL TO RESIDUAL WATER CONTENT

EXTINCTION WATER CONTENT FOR CELL AT ROW    11, COLUMN     5 IS LESS THAN RESIDUAL WATER CONTENT-- SETTING EXTINCTION WATER CONTENT EQUAL TO RESIDUAL WATER CONTENT

EXTINCTION WATER CONTENT FOR CELL AT ROW    11, COLUMN     6 IS LESS THAN RESIDUAL WATER CONTENT-- SETTING EXTINCTION WATER CONTENT EQUAL TO RESIDUAL WATER CONTENT

EXTINCTION WATER CONTENT FOR CELL AT ROW    11, COLUMN     7 IS LESS THAN RESIDUAL WATER CONTENT-- SETTING EXTINCTION WATER CONTENT EQUAL TO RESIDUAL WATER CONTENT

EXTINCTION WATER CONTENT FOR CELL AT ROW    11, COLUMN     8 IS LESS THAN RESIDUAL WATER CONTENT-- SETTING EXTINCTION WATER CONTENT EQUAL TO RESIDUAL WATER CONTENT

EXTINCTION WATER CONTENT FOR CELL AT ROW    11, COLUMN     9 IS LESS THAN RESIDUAL WATER CONTENT-- SETTING EXTINCTION WATER CONTENT EQUAL TO RESIDUAL WATER CONTENT

EXTINCTION WATER CONTENT FOR CELL AT ROW    12, COLUMN     1 IS LESS THAN RESIDUAL WATER CONTENT-- SETTING EXTINCTION WATER CONTENT EQUAL TO RESIDUAL WATER CONTENT

EXTINCTION WATER CONTENT FOR CELL AT ROW    12, COLUMN     2 IS LESS THAN RESIDUAL WATER CONTENT-- SETTING EXTINCTION WATER CONTENT EQUAL TO RESIDUAL WATER CONTENT

EXTINCTION WATER CONTENT FOR CELL AT ROW    12, COLUMN     3 IS LESS THAN RESIDUAL WATER CONTENT-- SETTING EXTINCTION WATER CONTENT EQUAL TO RESIDUAL WATER CONTENT

EXTINCTION WATER CONTENT FOR CELL AT ROW    12, COLUMN     4 IS LESS THAN RESIDUAL WATER CONTENT-- SETTING EXTINCTION WATER CONTENT EQUAL TO RESIDUAL WATER CONTENT

EXTINCTION WATER CONTENT FOR CELL AT ROW    12, COLUMN     5 IS LESS THAN RESIDUAL WATER CONTENT-- SETTING EXTINCTION WATER CONTENT EQUAL TO RESIDUAL WATER CONTENT

EXTINCTION WATER CONTENT FOR CELL AT ROW    12, COLUMN     6 IS LESS THAN RESIDUAL WATER CONTENT-- SETTING EXTINCTION WATER CONTENT EQUAL TO RESIDUAL WATER CONTENT

EXTINCTION WATER CONTENT FOR CELL AT ROW    12, COLUMN     7 IS LESS THAN RESIDUAL WATER CONTENT-- SETTING EXTINCTION WATER CONTENT EQUAL TO RESIDUAL WATER CONTENT

EXTINCTION WATER CONTENT FOR CELL AT ROW    12, COLUMN     8 IS LESS THAN RESIDUAL WATER CONTENT-- SETTING EXTINCTION WATER CONTENT EQUAL TO RESIDUAL WATER CONTENT

EXTINCTION WATER CONTENT FOR CELL AT ROW    12, COLUMN     9 IS LESS THAN RESIDUAL WATER CONTENT-- SETTING EXTINCTION WATER CONTENT EQUAL TO RESIDUAL WATER CONTENT

EXTINCTION WATER CONTENT FOR CELL AT ROW    13, COLUMN     1 IS LESS THAN RESIDUAL WATER CONTENT-- SETTING EXTINCTION WATER CONTENT EQUAL TO RESIDUAL WATER CONTENT

EXTINCTION WATER CONTENT FOR CELL AT ROW    13, COLUMN     2 IS LESS THAN RESIDUAL WATER CONTENT-- SETTING EXTINCTION WATER CONTENT EQUAL TO RESIDUAL WATER CONTENT

EXTINCTION WATER CONTENT FOR CELL AT ROW    13, COLUMN     3 IS LESS THAN RESIDUAL WATER CONTENT-- SETTING EXTINCTION WATER CONTENT EQUAL TO RESIDUAL WATER CONTENT

EXTINCTION WATER CONTENT FOR CELL AT ROW    13, COLUMN     4 IS LESS THAN RESIDUAL WATER CONTENT-- SETTING EXTINCTION WATER CONTENT EQUAL TO RESIDUAL WATER CONTENT

EXTINCTION WATER CONTENT FOR CELL AT ROW    13, COLUMN     5 IS LESS THAN RESIDUAL WATER CONTENT-- SETTING EXTINCTION WATER CONTENT EQUAL TO RESIDUAL WATER CONTENT

EXTINCTION WATER CONTENT FOR CELL AT ROW    13, COLUMN     6 IS LESS THAN RESIDUAL WATER CONTENT-- SETTING EXTINCTION WATER CONTENT EQUAL TO RESIDUAL WATER CONTENT

EXTINCTION WATER CONTENT FOR CELL AT ROW    13, COLUMN     7 IS LESS THAN RESIDUAL WATER CONTENT-- SETTING EXTINCTION WATER CONTENT EQUAL TO RESIDUAL WATER CONTENT

EXTINCTION WATER CONTENT FOR CELL AT ROW    13, COLUMN     8 IS LESS THAN RESIDUAL WATER CONTENT-- SETTING EXTINCTION WATER CONTENT EQUAL TO RESIDUAL WATER CONTENT

EXTINCTION WATER CONTENT FOR CELL AT ROW    13, COLUMN     9 IS LESS THAN RESIDUAL WATER CONTENT-- SETTING EXTINCTION WATER CONTENT EQUAL TO RESIDUAL WATER CONTENT

EXTINCTION WATER CONTENT FOR CELL AT ROW    14, COLUMN     2 IS LESS THAN RESIDUAL WATER CONTENT-- SETTING EXTINCTION WATER CONTENT EQUAL TO RESIDUAL WATER CONTENT

EXTINCTION WATER CONTENT FOR CELL AT ROW    14, COLUMN     3 IS LESS THAN RESIDUAL WATER CONTENT-- SETTING EXTINCTION WATER CONTENT EQUAL TO RESIDUAL WATER CONTENT

EXTINCTION WATER CONTENT FOR CELL AT ROW    14, COLUMN     4 IS LESS THAN RESIDUAL WATER CONTENT-- SETTING EXTINCTION WATER CONTENT EQUAL TO RESIDUAL WATER CONTENT

EXTINCTION WATER CONTENT FOR CELL AT ROW    14, COLUMN     5 IS LESS THAN RESIDUAL WATER CONTENT-- SETTING EXTINCTION WATER CONTENT EQUAL TO RESIDUAL WATER CONTENT

EXTINCTION WATER CONTENT FOR CELL AT ROW    14, COLUMN     6 IS LESS THAN RESIDUAL WATER CONTENT-- SETTING EXTINCTION WATER CONTENT EQUAL TO RESIDUAL WATER CONTENT

EXTINCTION WATER CONTENT FOR CELL AT ROW    14, COLUMN     7 IS LESS THAN RESIDUAL WATER CONTENT-- SETTING EXTINCTION WATER CONTENT EQUAL TO RESIDUAL WATER CONTENT

EXTINCTION WATER CONTENT FOR CELL AT ROW    14, COLUMN     8 IS LESS THAN RESIDUAL WATER CONTENT-- SETTING EXTINCTION WATER CONTENT EQUAL TO RESIDUAL WATER CONTENT

EXTINCTION WATER CONTENT FOR CELL AT ROW    14, COLUMN     9 IS LESS THAN RESIDUAL WATER CONTENT-- SETTING EXTINCTION WATER CONTENT EQUAL TO RESIDUAL WATER CONTENT

EXTINCTION WATER CONTENT FOR CELL AT ROW    15, COLUMN     3 IS LESS THAN RESIDUAL WATER CONTENT-- SETTING EXTINCTION WATER CONTENT EQUAL TO RESIDUAL WATER CONTENT

EXTINCTION WATER CONTENT FOR CELL AT ROW    15, COLUMN     4 IS LESS THAN RESIDUAL WATER CONTENT-- SETTING EXTINCTION WATER CONTENT EQUAL TO RESIDUAL WATER CONTENT

EXTINCTION WATER CONTENT FOR CELL AT ROW    15, COLUMN     5 IS LESS THAN RESIDUAL WATER CONTENT-- SETTING EXTINCTION WATER CONTENT EQUAL TO RESIDUAL WATER CONTENT

EXTINCTION WATER CONTENT FOR CELL AT ROW    15, COLUMN     6 IS LESS THAN RESIDUAL WATER CONTENT-- SETTING EXTINCTION WATER CONTENT EQUAL TO RESIDUAL WATER CONTENT

       AIR ENTRY PRESSURE =  -1.10000    

            ROOT PRESSURE =  -75.0000    

            ROOT ACTIVITY =   1.00000    
 # AG segment list

 PROCESSING SEGMENT LIST

 FINISHED READING SEGMENT LIST
 # AG well list

 PROCESSING WELL LIST

 LAYER   ROW   COL   MAX STRESS RATE         
 --------------------------------------------
      1      1      6      4      -100.0    
      2      1      6      5      -100.0    
      3      1      7      4      -100.0    
      4      1      7      5      -100.0    
      5      1      8      4      -100.0    
      6      1      8      5      -100.0    

 FINISHED READING WELL LIST

      6 WELLS

 PROCESSING AG STRESS PERIOD DATA
 # AG stress period

 READING AG STRESS PERIOD DATA

 READING IRRIGATION SEGMENT

 READING IRRIGATION WELL

 READING SUPPLEMENTAL WELL

 END PROCESSING AG STRESS PERIOD DATA OPTIONS
 
 SOLVING FOR HEAD 
                                                   Max.-Head-Change                         Max.-Flux-Residual
  Residual-Control   Outer-Iter.   Inner-Iter.     Column Row Layer    Maximum-Head-Change  Column Row Layer    Maximum-Flux-Residual          L2-NORM 
          0                 1           6             2    2     1      -0.2843914204E+02       3    3    1        -0.3360741367E+01      0.9336255197E+01
          0                 2           6             1    1     1      -0.3130416790E+02       1   13    1        -0.6347781776E+02      0.6369041900E+02
          0                 3           5             1    1     1      -0.1456238362E+01       6   13    1        -0.2214093411E+01      0.3433614981E+01
          0                 4           5             5   13     1      -0.1645980008E+00       5   13    1        -0.3292040274E+00      0.3977241098E+00
          0                 5           4             5   14     1       0.3281683597E-01       5   13    1         0.1669600623E-01      0.2767763723E-01
          0                 6           2             5   14     1      -0.1281568217E-02       5   13    1        -0.6695036545E-03      0.2031426753E-02
          0                 7           1             5   10     1       0.1511215516E-04       5   10    1         0.2520356338E-04      0.8043332370E-04

    ------------------------------------------------
       NWT REQUIRED            7 OUTER ITERATIONS 
       AND A TOTAL OF         29 INNER ITERATIONS.
    ------------------------------------------------

 OUTPUT CONTROL FOR STRESS PERIOD    1   TIME STEP    1
    PRINT BUDGET
    PRINT HEAD FOR ALL LAYERS
    SAVE BUDGET
    SAVE HEAD FOR ALL LAYERS
 UBDSV2 SAVING "   CONSTANT HEAD" ON UNIT 102 AT TIME STEP  1, STRESS PERIOD   1
 UBDSV1 SAVING "FLOW RIGHT FACE " ON UNIT 102 AT TIME STEP  1, STRESS PERIOD   1
 UBDSV1 SAVING "FLOW FRONT FACE " ON UNIT 102 AT TIME STEP  1, STRESS PERIOD   1

  HEAD DEP BOUNDS   PERIOD    1   STEP     1
 BOUNDARY      1   LAYER   1   ROW    13   COL     1   RATE   -0.287059    
 BOUNDARY      2   LAYER   1   ROW    14   COL     9   RATE    0.285620    



 STREAM LISTING     PERIOD      1   STEP        1

 LAYER ROW COL. STREAM  RCH.  FLOW INTO     FLOW TO   FLOW OUT OF   OVRLND.     DIRECT     STREAM       STREAM     STREAM     STREAM   STREAMBED  STREAMBED
                SEG.NO.  NO.  STRM. RCH.    AQUIFER    STRM. RCH.    RUNOFF     PRECIP       ET          HEAD       DEPTH      WIDTH   CONDCTNC.   GRADIENT

   1    1    1     1     1    3.7500E+00  8.5597E-02   3.6644E+00  0.000E+00  0.000E+00  0.000E+00  1.09373E+03  6.817E-01  5.166E+00  2.325E-02  1.227E+00
   1    2    2     1     2    3.6644E+00  1.3158E-01   3.5328E+00  0.000E+00  0.000E+00  0.000E+00  1.08873E+03  6.747E-01  5.115E+00  3.581E-02  1.225E+00
   1    3    3     1     3    3.5328E+00  1.1125E-01   3.4216E+00  0.000E+00  0.000E+00  0.000E+00  1.08309E+03  6.667E-01  5.057E+00  3.034E-02  1.222E+00
   1    3    4     1     4    3.4216E+00  1.0164E-01   3.3199E+00  0.000E+00  0.000E+00  0.000E+00  1.07807E+03  6.595E-01  5.004E+00  2.777E-02  1.220E+00
   1    4    5     2     1    1.3199E+00  2.4920E-01   1.0707E+00  0.000E+00  0.000E+00  0.000E+00  1.07213E+03  1.948E-01  1.200E+01  7.800E-02  1.065E+00
   1    5    6     2     2    1.0707E+00  1.9035E-01   8.8040E-01  0.000E+00  0.000E+00  0.000E+00  1.06668E+03  1.725E-01  1.200E+01  6.000E-02  1.057E+00
   1    6    6     2     3    8.8040E-01  1.8909E-01   6.9131E-01  0.000E+00  0.000E+00  0.000E+00  1.06194E+03  1.515E-01  1.200E+01  6.000E-02  1.050E+00
   1    7    6     2     4    6.9131E-01  1.8771E-01   5.0360E-01  0.000E+00  0.000E+00  0.000E+00  1.05720E+03  1.285E-01  1.200E+01  6.000E-02  1.043E+00
   1    8    6     2     5    5.0360E-01  1.8616E-01   3.1744E-01  0.000E+00  0.000E+00  0.000E+00  1.05246E+03  1.026E-01  1.200E+01  6.000E-02  1.034E+00
   1    3    5     3     1    2.0000E+00  2.8252E-01   1.7175E+00  0.000E+00  0.000E+00  0.000E+00  1.07555E+03  1.909E+00  9.636E+00  7.227E-02  1.955E+00
   1    3    6     3     2    1.7175E+00  2.4905E-01   1.4684E+00  0.000E+00  0.000E+00  0.000E+00  1.07264E+03  1.727E+00  8.909E+00  6.682E-02  1.864E+00
   1    3    7     3     3    1.4684E+00  1.9718E-01   1.2712E+00  0.000E+00  0.000E+00  0.000E+00  1.06987E+03  1.555E+00  8.218E+00  5.547E-02  1.777E+00
   1    4    8     3     4    1.2712E+00  2.2567E-01   1.0456E+00  0.000E+00  0.000E+00  0.000E+00  1.06682E+03  1.364E+00  7.455E+00  6.709E-02  1.682E+00
   1    5    8     3     5    1.0456E+00  1.5790E-01   8.8768E-01  0.000E+00  0.000E+00  0.000E+00  1.06362E+03  1.164E+00  6.655E+00  4.991E-02  1.582E+00
   1    6    8     3     6    8.8768E-01  5.5980E-02   8.3170E-01  0.000E+00  0.000E+00  0.000E+00  1.06158E+03  1.036E+00  6.145E+00  1.844E-02  1.518E+00
   1    5   10     4     1    1.0000E+01  9.0919E-02   9.9091E+00  0.000E+00  0.000E+00  0.000E+00  1.07836E+03  6.368E-01  1.000E+01  2.500E-02  1.212E+00
   1    5    9     4     2    9.9091E+00  1.8158E-01   9.7275E+00  0.000E+00  0.000E+00  0.000E+00  1.07154E+03  6.315E-01  1.000E+01  5.000E-02  1.211E+00
   1    6    8     4     3    9.7275E+00  1.2689E-01   9.6006E+00  0.000E+00  0.000E+00  0.000E+00  1.06381E+03  6.256E-01  1.000E+01  3.500E-02  1.209E+00
   1    6    8     5     1    1.0432E+01  2.2686E-01   1.0205E+01  0.000E+00  0.000E+00  0.000E+00  1.05868E+03  6.790E-01  1.542E+01  6.166E-02  1.226E+00
   1    7    7     5     2    1.0205E+01  2.7894E-01   9.9265E+00  0.000E+00  0.000E+00  0.000E+00  1.05417E+03  6.732E-01  1.519E+01  7.594E-02  1.224E+00
   1    8    7     5     3    9.9265E+00  1.9221E-01   9.7343E+00  0.000E+00  0.000E+00  0.000E+00  1.04992E+03  6.676E-01  1.497E+01  5.241E-02  1.223E+00
   1    8    6     5     4    9.7343E+00  1.3577E-01   9.5985E+00  0.000E+00  0.000E+00  0.000E+00  1.04691E+03  6.637E-01  1.482E+01  3.706E-02  1.221E+00
   1    9    6     6     1    9.9160E+00  2.2178E-01   9.6942E+00  0.000E+00  0.000E+00  0.000E+00  1.04342E+03  6.964E-01  1.200E+01  6.000E-02  1.232E+00
   1   10    7     6     2    9.6942E+00  2.2121E-01   9.4730E+00  0.000E+00  0.000E+00  0.000E+00  1.03887E+03  6.869E-01  1.200E+01  6.000E-02  1.229E+00
   1   11    7     6     3    9.4730E+00  2.2064E-01   9.2523E+00  0.000E+00  0.000E+00  0.000E+00  1.03431E+03  6.773E-01  1.200E+01  6.000E-02  1.226E+00
   1   12    7     6     4    9.2523E+00  2.2006E-01   9.0323E+00  0.000E+00  0.000E+00  0.000E+00  1.02976E+03  6.677E-01  1.200E+01  6.000E-02  1.223E+00
   1   13    7     6     5    9.0323E+00 -1.1354E-01   9.1458E+00  0.000E+00  0.000E+00  0.000E+00  1.02657E+03  6.654E-01  1.200E+01  2.400E-01 -1.577E-01
   1   14    9     7     1    1.5000E+02  1.3338E+00   1.4867E+02  0.000E+00  0.000E+00  0.000E+00  1.03987E+03  2.288E+00  5.529E+01  5.593E-01  7.949E-01
   1   13    8     7     2    1.4867E+02  1.8355E+00   1.4683E+02  0.000E+00  0.000E+00  0.000E+00  1.03478E+03  2.279E+00  5.526E+01  6.148E-01  9.952E-01
   1   13    7     7     3    1.4683E+02  1.4756E+00   1.4536E+02  0.000E+00  0.000E+00  0.000E+00  1.02969E+03  2.270E+00  5.522E+01  5.585E-01  8.807E-01
   1   13    6     8     1    1.5450E+02  8.2944E-01   1.5367E+02  0.000E+00  0.000E+00  0.000E+00  1.02472E+03  2.845E+00  4.126E+01  4.204E-01  6.576E-01
   1   13    5     8     2    1.5367E+02  1.0127E-01   1.5357E+02  0.000E+00  0.000E+00  0.000E+00  1.01847E+03  2.842E+00  4.121E+01  4.200E-01  8.038E-02
   1   13    4     8     3    1.5357E+02 -2.6792E+00   1.5625E+02  0.000E+00  0.000E+00  0.000E+00  1.01223E+03  2.851E+00  4.134E+01  4.213E+00 -2.120E-01
   1   13    3     8     4    1.5625E+02 -3.7567E+00   1.6001E+02  0.000E+00  0.000E+00  0.000E+00  1.00600E+03  2.873E+00  4.166E+01  4.245E+00 -2.950E-01
   1   13    2     8     5    1.6001E+02 -2.6055E+00   1.6261E+02  0.000E+00  0.000E+00  0.000E+00  9.99770E+02  2.895E+00  4.197E+01  4.277E+00 -2.031E-01
   1   13    1     8     6    1.6261E+02 -1.9843E+00   1.6460E+02  0.000E+00  0.000E+00  0.000E+00  9.94785E+02  2.910E+00  4.220E+01  2.580E+00 -2.564E-01
   1    8    6     9     1    0.0000E+00  0.0000E+00   0.0000E+00  0.000E+00  0.000E+00  0.000E+00  1.07875E+03  0.000E+00  4.000E+00  0.000E+00  1.000E+00
   1    8    5     9     2    0.0000E+00  0.0000E+00   0.0000E+00  0.000E+00  0.000E+00  0.000E+00  1.07825E+03  0.000E+00  4.000E+00  0.000E+00  1.000E+00



 UBDSV3 SAVING "           GW ET" ON UNIT  61 AT TIME STEP  1, STRESS PERIOD   1
 UBDSV3 SAVING "    UZF RECHARGE" ON UNIT  61 AT TIME STEP  1, STRESS PERIOD   1
 UBDSV3 SAVING " SURFACE LEAKAGE" ON UNIT  61 AT TIME STEP  1, STRESS PERIOD   1
 UBDSV3 SAVING "       HORT+DUNN" ON UNIT  61 AT TIME STEP  1, STRESS PERIOD   1
 UBDSV3 SAVING "  STORAGE CHANGE" ON UNIT  61 AT TIME STEP  1, STRESS PERIOD   1


UNSATURATED ZONE PACKAGE VOLUMETRIC BUDGET FOR  TIME STEP     1 STRESS PERIOD    1
  ------------------------------------------------------------------------------



     CUMULATIVE VOLUMES      L**3       RATES FOR THIS TIME STEP      L**3/T
     ------------------                 ------------------------

           IN:                                      IN:
           ---                                      ---
        INFILTRATION =       73224.0000          INFILTRATION =           0.8475

          OUT:                                     OUT:
          ----                                     ----
              UZF ET =       0.0000E+00                UZF ET =       0.0000E+00
        UZF RECHARGE =       73224.0000          UZF RECHARGE =           0.8475

            IN - OUT =       0.0000E+00              IN - OUT =       0.0000E+00

          STORAGE:                                 STORAGE:
          --------                                 --------
      STORAGE CHANGE =       0.0000E+00        STORAGE CHANGE =       0.0000E+00

 PERCENT DISCREPANCY IS DIFFERENCE BETWEEN IN-OUT MINUS CHANGE IN STORAGE
 DIVIDED BY THE AVERAGE OF IN AND OUT TIMES 100

 PERCENT DISCREPANCY =           0.00     PERCENT DISCREPANCY =           0.00






 

            AG WELLS      PERIOD    1   STEP   1
 AG WELL      1   LAYER   1   ROW     6   COL     4   RATE     0.00000    
 AG WELL      2   LAYER   1   ROW     6   COL     5   RATE     0.00000    
 AG WELL      3   LAYER   1   ROW     7   COL     4   RATE     0.00000    
 AG WELL      4   LAYER   1   ROW     7   COL     5   RATE     0.00000    
 AG WELL      5   LAYER   1   ROW     8   COL     4   RATE     0.00000    
 AG WELL      6   LAYER   1   ROW     8   COL     5   RATE     0.00000    
 
 

   DIVERSION SEGMENTS     PERIOD    1   STEP   1
 
 

        SW IRRIGATION     PERIOD    1   STEP   1
 
 

        GW IRRIGATION     PERIOD    1   STEP   1
 
1
  VOLUMETRIC BUDGET FOR AGRICULTURAL FIELDS AT  END OF TIME STEP    1, STRESS PERIOD   1
  ------------------------------------------------------------------------------

     CUMULATIVE VOLUMES      L**3       RATES FOR THIS TIME STEP      L**3/T
     ------------------                 ------------------------

           IN:                                      IN:
           ---                                      ---
               AG WELLS  =           0.0000                 AG WELLS  =           0.0000
      DIVERSION SEGMENTS =           0.0000        DIVERSION SEGMENTS =           0.0000
           GW IRRIGATION =           0.0000             GW IRRIGATION =           0.0000
           SW IRRIGATION =           0.0000             SW IRRIGATION =           0.0000
        SYSTEM LOSSES GW =           0.0000          SYSTEM LOSSES GW =           0.0000
        SYSTEM LOSSES SW =           0.0000          SYSTEM LOSSES SW =           0.0000

                TOTAL IN =           0.0000                  TOTAL IN =           0.0000

          OUT:                                     OUT:
          ----                                     ----
               AG WELLS  =           0.0000                 AG WELLS  =           0.0000
      DIVERSION SEGMENTS =           0.0000        DIVERSION SEGMENTS =           0.0000
           GW IRRIGATION =           0.0000             GW IRRIGATION =           0.0000
           SW IRRIGATION =           0.0000             SW IRRIGATION =           0.0000
        SYSTEM LOSSES GW =           0.0000          SYSTEM LOSSES GW =           0.0000
        SYSTEM LOSSES SW =           0.0000          SYSTEM LOSSES SW =           0.0000

               TOTAL OUT =           0.0000                 TOTAL OUT =           0.0000

                IN - OUT =           0.0000                  IN - OUT =           0.0000

     PERCENT DISCREPANCY =           0.00         PERCENT DISCREPANCY =           0.00



1
              HEAD IN LAYER   1 AT END OF TIME STEP   1 IN STRESS PERIOD    1
  ---------------------------------------------------------------------------

           1       2       3       4       5       6       7       8       9      10
 ...................................................................................
   1  1032.36 1031.32 6999.00 6999.00 6999.00 6999.00 6999.00 6999.00 6999.00 6999.00
   2  1031.40 1030.17 1029.58 6999.00 6999.00 1030.68 1030.83 1030.79 6999.00 6999.00
   3  6999.00 1029.27 1028.96 1028.73 1029.28 1029.91 1030.40 1030.37 6999.00 6999.00
   4  1028.57 1028.53 1028.35 1028.17 1028.24 1028.30 1028.78 1029.83 1029.56 6999.00
   5  1028.13 1027.76 1027.59 1027.51 1027.61 1027.82 1027.99 1028.47 1029.10 1029.63
   6  1027.57 1027.02 1026.83 1026.81 1026.93 1027.26 1027.55 1028.08 1028.52 1029.45
   7  1027.07 1026.08 1025.92 1025.96 1026.14 1026.55 1026.98 1027.45 1027.96 6999.00
   8  6999.00 1024.71 1024.75 1024.91 1025.15 1025.65 1026.08 1026.80 1027.36 6999.00
   9  6999.00 1022.70 1023.03 1023.48 1023.88 1024.53 1025.05 1025.79 1026.91 6999.00
  10  6999.00 1019.87 1020.64 1021.69 1022.47 1023.49 1024.39 1025.46 1027.07 1027.71
  11  6999.00 1015.35 1016.78 1019.32 1020.96 1022.69 1024.22 1026.00 1028.19 6999.00
  12  1001.91 1007.94 1012.08 1016.04 1019.32 1022.30 1024.79 1028.19 1031.18 6999.00
  13   995.55 1000.38 1006.88 1012.86 1018.23 1022.75 1027.05 1031.79 1034.63 6999.00
  14  6999.00 1005.79 1008.88 1013.53 1018.29 1022.70 1027.60 1033.07 1037.48 6999.00
  15  6999.00 6999.00 1012.52 1015.24 1018.71 1021.73 6999.00 6999.00 6999.00 6999.00

 HEAD WILL BE SAVED ON UNIT   62 AT END OF TIME STEP    1, STRESS PERIOD    1
1
  VOLUMETRIC BUDGET FOR ENTIRE MODEL AT END OF TIME STEP    1, STRESS PERIOD   1
  ------------------------------------------------------------------------------

     CUMULATIVE VOLUMES      L**3       RATES FOR THIS TIME STEP      L**3/T
     ------------------                 ------------------------

           IN:                                      IN:
           ---                                      ---
             STORAGE     =           0.0000               STORAGE     =           0.0000
       CONSTANT HEAD     =           0.0000         CONSTANT HEAD     =           0.0000
     HEAD DEP BOUNDS     =       24677.5273       HEAD DEP BOUNDS     =           0.2856
      STREAM LEAKAGE     =      889333.8125        STREAM LEAKAGE     =          10.2932
        UZF RECHARGE     =       73223.9531          UZF RECHARGE     =           0.8475
               GW ET     =           0.0000                 GW ET     =           0.0000
     SURFACE LEAKAGE     =           0.0000       SURFACE LEAKAGE     =           0.0000
           AG WELLS      =           0.0000             AG WELLS      =           0.0000

                TOTAL IN =      987235.2500                  TOTAL IN =          11.4263

          OUT:                                     OUT:
          ----                                     ----
             STORAGE     =           0.0000               STORAGE     =           0.0000
       CONSTANT HEAD     =           0.0000         CONSTANT HEAD     =           0.0000
     HEAD DEP BOUNDS     =       24801.8672       HEAD DEP BOUNDS     =           0.2871
      STREAM LEAKAGE     =      962433.3125        STREAM LEAKAGE     =          11.1393
        UZF RECHARGE     =           0.0000          UZF RECHARGE     =           0.0000
               GW ET     =           0.0000                 GW ET     =           0.0000
     SURFACE LEAKAGE     =           0.0000       SURFACE LEAKAGE     =           0.0000
           AG WELLS      =           0.0000             AG WELLS      =           0.0000

               TOTAL OUT =      987235.1875                 TOTAL OUT =          11.4263

                IN - OUT =       6.2500E-02                  IN - OUT =       1.9073E-06

     PERCENT DISCREPANCY =           0.00         PERCENT DISCREPANCY =           0.00






         TIME SUMMARY AT END OF TIME STEP    1 IN STRESS PERIOD    1
                    SECONDS     MINUTES      HOURS       DAYS        YEARS
                    -----------------------------------------------------------
   TIME STEP LENGTH  86400.      1440.0      24.000      1.0000     2.73785E-03
 STRESS PERIOD TIME  86400.      1440.0      24.000      1.0000     2.73785E-03
         TOTAL TIME  86400.      1440.0      24.000      1.0000     2.73785E-03
1
1
                            STRESS PERIOD NO.    2, LENGTH =   2630000.    
                            -----------------------------------------------

                              NUMBER OF TIME STEPS =    30

                               MULTIPLIER FOR DELT =     1.000

                            INITIAL TIME STEP SIZE =   87666.66    

 REUSING NON-PARAMETER GHB CELLS FROM LAST STRESS PERIOD

      2 GHB CELLS

 REUSING STREAM SEGMENT DATA FROM LAST STRESS PERIOD



            AREAL INFILTRATION RATE
 READING ON UNIT   19 WITH FORMAT: (10F4.0)            

            1           2           3           4           5           6           7           8           9          10
 ........................................................................................................................
   1   1.2000E-09   0.000       0.000       0.000       0.000       0.000       0.000       0.000       0.000       0.000    
   2   2.1000E-09  2.0000E-09  8.0000E-10  8.5000E-09   0.000       0.000       0.000       0.000       0.000       0.000    
   3   5.0000E-10  1.1000E-09  8.8000E-09  5.5000E-09   0.000       0.000       0.000       0.000       0.000       0.000    
   4   8.5000E-09  1.1000E-09  1.1000E-09  1.1000E-09  2.0000E-09   0.000       0.000       0.000       0.000       0.000    
   5   8.5000E-09  1.1000E-09  1.1000E-09  1.1000E-09  1.1000E-09   0.000       0.000       0.000       0.000       0.000    
   6   8.5000E-09  5.2000E-09  2.1000E-09  1.1000E-09  1.5000E-09   0.000       0.000       0.000       0.000       0.000    
   7   8.5000E-09  5.2000E-09  2.1000E-09  1.2000E-09  2.0000E-09   0.000       0.000       0.000       0.000       0.000    
   8   5.0000E-10  5.2000E-09  2.1000E-09  1.2000E-09  5.0000E-09   0.000       0.000       0.000       0.000       0.000    
   9   5.0000E-10  5.2000E-09  2.1000E-09  1.2000E-09  5.0000E-09   0.000       0.000       0.000       0.000       0.000    
  10   5.0000E-10  5.2000E-09  2.1000E-09  1.2000E-09  5.8000E-09   0.000       0.000       0.000       0.000       0.000    
  11   1.0000E-10  1.1000E-09  1.1000E-09  1.2000E-09  5.0000E-09   0.000       0.000       0.000       0.000       0.000    
  12   1.1000E-09  1.1000E-09  1.1000E-09  1.1000E-09  2.0000E-09   0.000       0.000       0.000       0.000       0.000    
  13   1.1000E-09  2.2000E-09  2.2000E-09  2.1000E-09  1.0000E-09   0.000       0.000       0.000       0.000       0.000    
  14   2.0000E-10  5.5000E-09  5.5000E-09  5.2000E-09  1.0000E-09   0.000       0.000       0.000       0.000       0.000    
  15    0.000      8.8000E-09  8.8000E-09   0.000       0.000       0.000       0.000       0.000       0.000       0.000    

                  ET RATE =  5.000000E-10

 USING ET EXTINCTION DEPTH FROM PREVIOUS STRESS PERIOD. CURRENT PERIOD IS:       2

 USING EXTINCTION WATER CONTENT FROM PREVIOUS STRESS PERIOD. CURRENT PERIOD IS:       2

 USING AIR ENTRY PRESSURE FROM PREVIOUS STRESS PERIOD. CURRENT PERIOD IS:       2

 USING ROOT PRESSURE HEAD FROM PREVIOUS STRESS PERIOD. CURRENT PERIOD IS:       2

 USING ROOT ACTIVITY FROM PREVIOUS STRESS PERIOD. CURRENT PERIOD IS:       2

 PROCESSING AG STRESS PERIOD DATA

 READING AG STRESS PERIOD DATA

 READING IRRIGATION SEGMENT

 READING IRRIGATION WELL

 READING SUPPLEMENTAL WELL

 END PROCESSING AG STRESS PERIOD DATA OPTIONS
 
 SOLVING FOR HEAD 
                                                   Max.-Head-Change                         Max.-Flux-Residual
  Residual-Control   Outer-Iter.   Inner-Iter.     Column Row Layer    Maximum-Head-Change  Column Row Layer    Maximum-Flux-Residual          L2-NORM 
          0                 1           2             4   13     1       0.4516100753E-02       4   13    1         0.2587987040E+00      0.5590012886E+00
          0                 2           2             4   13     1      -0.4346411766E-03       4   13    1        -0.2560932580E-01      0.5485710693E-01
          0                 3           1             4   13     1       0.2918268524E-04       4   13    1         0.1767874254E-02      0.3744006766E-02

    ------------------------------------------------
       NWT REQUIRED            3 OUTER ITERATIONS 
       AND A TOTAL OF          5 INNER ITERATIONS.
    ------------------------------------------------

 OUTPUT CONTROL FOR STRESS PERIOD    2   TIME STEP    1
    PRINT BUDGET
    PRINT HEAD FOR ALL LAYERS
    SAVE BUDGET
 UBDSV1 SAVING "         STORAGE" ON UNIT 102 AT TIME STEP  1, STRESS PERIOD   2
 UBDSV2 SAVING "   CONSTANT HEAD" ON UNIT 102 AT TIME STEP  1, STRESS PERIOD   2
 UBDSV1 SAVING "FLOW RIGHT FACE " ON UNIT 102 AT TIME STEP  1, STRESS PERIOD   2
 UBDSV1 SAVING "FLOW FRONT FACE " ON UNIT 102 AT TIME STEP  1, STRESS PERIOD   2

  HEAD DEP BOUNDS   PERIOD    2   STEP     1
 BOUNDARY      1   LAYER   1   ROW    13   COL     1   RATE   -0.287146    
 BOUNDARY      2   LAYER   1   ROW    14   COL     9   RATE    0.285621    



 STREAM LISTING     PERIOD      2   STEP        1

 LAYER ROW COL. STREAM  RCH.  FLOW INTO     FLOW TO   FLOW OUT OF   OVRLND.     DIRECT     STREAM       STREAM     STREAM     STREAM   STREAMBED  STREAMBED
                SEG.NO.  NO.  STRM. RCH.    AQUIFER    STRM. RCH.    RUNOFF     PRECIP       ET          HEAD       DEPTH      WIDTH   CONDCTNC.   GRADIENT

   1    1    1     1     1    1.6500E+01  1.9759E-01   1.6302E+01  0.000E+00  0.000E+00  0.000E+00  1.09409E+03  1.039E+00  1.087E+01  4.893E-02  1.346E+00
   1    2    2     1     2    1.6302E+01  3.0466E-01   1.5998E+01  0.000E+00  0.000E+00  0.000E+00  1.08909E+03  1.034E+00  1.079E+01  7.552E-02  1.345E+00
   1    3    3     1     3    1.5998E+01  2.5853E-01   1.5739E+01  0.000E+00  0.000E+00  0.000E+00  1.08345E+03  1.029E+00  1.070E+01  6.417E-02  1.343E+00
   1    3    4     1     4    1.5739E+01  2.3700E-01   1.5502E+01  0.000E+00  0.000E+00  0.000E+00  1.07843E+03  1.024E+00  1.061E+01  5.889E-02  1.341E+00
   1    4    5     2     1    1.3502E+01  2.9865E-01   1.3204E+01  0.000E+00  0.000E+00  0.000E+00  1.07276E+03  8.289E-01  1.200E+01  7.800E-02  1.276E+00
   1    5    6     2     2    1.3204E+01  2.2914E-01   1.2974E+01  0.000E+00  0.000E+00  0.000E+00  1.06733E+03  8.190E-01  1.200E+01  6.000E-02  1.273E+00
   1    6    6     2     3    1.2974E+01  2.2862E-01   1.2746E+01  0.000E+00  0.000E+00  0.000E+00  1.06260E+03  8.104E-01  1.200E+01  6.000E-02  1.270E+00
   1    7    6     2     4    1.2746E+01  2.2810E-01   1.2518E+01  0.000E+00  0.000E+00  0.000E+00  1.05788E+03  8.017E-01  1.200E+01  6.000E-02  1.267E+00
   1    8    6     2     5    1.2518E+01  2.2758E-01   1.2290E+01  0.000E+00  0.000E+00  0.000E+00  1.05315E+03  7.930E-01  1.200E+01  6.000E-02  1.264E+00
   1    3    5     3     1    2.0000E+00  2.8252E-01   1.7175E+00  0.000E+00  0.000E+00  0.000E+00  1.07555E+03  1.909E+00  9.636E+00  7.227E-02  1.955E+00
   1    3    6     3     2    1.7175E+00  2.4905E-01   1.4684E+00  0.000E+00  0.000E+00  0.000E+00  1.07264E+03  1.727E+00  8.909E+00  6.682E-02  1.864E+00
   1    3    7     3     3    1.4684E+00  1.9718E-01   1.2712E+00  0.000E+00  0.000E+00  0.000E+00  1.06987E+03  1.555E+00  8.218E+00  5.547E-02  1.777E+00
   1    4    8     3     4    1.2712E+00  2.2567E-01   1.0456E+00  0.000E+00  0.000E+00  0.000E+00  1.06682E+03  1.364E+00  7.455E+00  6.709E-02  1.682E+00
   1    5    8     3     5    1.0456E+00  1.5790E-01   8.8768E-01  0.000E+00  0.000E+00  0.000E+00  1.06362E+03  1.164E+00  6.655E+00  4.991E-02  1.582E+00
   1    6    8     3     6    8.8768E-01  5.5980E-02   8.3170E-01  0.000E+00  0.000E+00  0.000E+00  1.06158E+03  1.036E+00  6.145E+00  1.844E-02  1.518E+00
   1    5   10     4     1    1.0000E+01  9.0919E-02   9.9091E+00  0.000E+00  0.000E+00  0.000E+00  1.07836E+03  6.368E-01  1.000E+01  2.500E-02  1.212E+00
   1    5    9     4     2    9.9091E+00  1.8158E-01   9.7275E+00  0.000E+00  0.000E+00  0.000E+00  1.07154E+03  6.315E-01  1.000E+01  5.000E-02  1.211E+00
   1    6    8     4     3    9.7275E+00  1.2689E-01   9.6006E+00  0.000E+00  0.000E+00  0.000E+00  1.06381E+03  6.256E-01  1.000E+01  3.500E-02  1.209E+00
   1    6    8     5     1    1.0432E+01  2.2686E-01   1.0205E+01  0.000E+00  0.000E+00  0.000E+00  1.05868E+03  6.790E-01  1.542E+01  6.166E-02  1.226E+00
   1    7    7     5     2    1.0205E+01  2.7894E-01   9.9265E+00  0.000E+00  0.000E+00  0.000E+00  1.05417E+03  6.732E-01  1.519E+01  7.594E-02  1.224E+00
   1    8    7     5     3    9.9265E+00  1.9221E-01   9.7343E+00  0.000E+00  0.000E+00  0.000E+00  1.04992E+03  6.676E-01  1.497E+01  5.241E-02  1.223E+00
   1    8    6     5     4    9.7343E+00  1.3577E-01   9.5985E+00  0.000E+00  0.000E+00  0.000E+00  1.04691E+03  6.637E-01  1.482E+01  3.706E-02  1.221E+00
   1    9    6     6     1    2.1889E+01  2.4742E-01   2.1641E+01  0.000E+00  0.000E+00  0.000E+00  1.04385E+03  1.124E+00  1.200E+01  6.000E-02  1.375E+00
   1   10    7     6     2    2.1641E+01  2.4696E-01   2.1394E+01  0.000E+00  0.000E+00  0.000E+00  1.03930E+03  1.116E+00  1.200E+01  6.000E-02  1.372E+00
   1   11    7     6     3    2.1394E+01  2.4650E-01   2.1148E+01  0.000E+00  0.000E+00  0.000E+00  1.03474E+03  1.108E+00  1.200E+01  6.000E-02  1.369E+00
   1   12    7     6     4    2.1148E+01  2.4603E-01   2.0902E+01  0.000E+00  0.000E+00  0.000E+00  1.03019E+03  1.101E+00  1.200E+01  6.000E-02  1.367E+00
   1   13    7     6     5    2.0902E+01 -1.0396E-02   2.0912E+01  0.000E+00  0.000E+00  0.000E+00  1.02701E+03  1.097E+00  1.200E+01  2.400E-01 -1.444E-02
   1   14    9     7     1    1.5000E+02  1.3338E+00   1.4867E+02  0.000E+00  0.000E+00  0.000E+00  1.03987E+03  2.288E+00  5.529E+01  5.593E-01  7.949E-01
   1   13    8     7     2    1.4867E+02  1.8355E+00   1.4683E+02  0.000E+00  0.000E+00  0.000E+00  1.03478E+03  2.279E+00  5.526E+01  6.148E-01  9.952E-01
   1   13    7     7     3    1.4683E+02  1.4746E+00   1.4536E+02  0.000E+00  0.000E+00  0.000E+00  1.02969E+03  2.270E+00  5.522E+01  5.585E-01  8.802E-01
   1   13    6     8     1    1.6627E+02  8.8653E-01   1.6538E+02  0.000E+00  0.000E+00  0.000E+00  1.02480E+03  2.925E+00  4.241E+01  4.322E-01  6.838E-01
   1   13    5     8     2    1.6538E+02  1.3805E-01   1.6524E+02  0.000E+00  0.000E+00  0.000E+00  1.01855E+03  2.921E+00  4.236E+01  4.317E-01  1.066E-01
   1   13    4     8     3    1.6524E+02 -2.4329E+00   1.6768E+02  0.000E+00  0.000E+00  0.000E+00  1.01230E+03  2.929E+00  4.247E+01  4.328E+00 -1.874E-01
   1   13    3     8     4    1.6768E+02 -3.5424E+00   1.7122E+02  0.000E+00  0.000E+00  0.000E+00  1.00607E+03  2.949E+00  4.275E+01  4.357E+00 -2.710E-01
   1   13    2     8     5    1.7122E+02 -2.3687E+00   1.7359E+02  0.000E+00  0.000E+00  0.000E+00  9.99843E+02  2.968E+00  4.303E+01  4.385E+00 -1.800E-01
   1   13    1     8     6    1.7359E+02 -1.8506E+00   1.7544E+02  0.000E+00  0.000E+00  0.000E+00  9.94856E+02  2.981E+00  4.323E+01  2.643E+00 -2.334E-01
   1    8    6     9     1    0.0000E+00  0.0000E+00   0.0000E+00  0.000E+00  0.000E+00  0.000E+00  1.07875E+03  0.000E+00  4.000E+00  0.000E+00  1.000E+00
   1    8    5     9     2    0.0000E+00  0.0000E+00   0.0000E+00  0.000E+00  0.000E+00  0.000E+00  1.07825E+03  0.000E+00  4.000E+00  0.000E+00  1.000E+00



 UBDSV3 SAVING "           GW ET" ON UNIT  61 AT TIME STEP  1, STRESS PERIOD   2
 UBDSV3 SAVING "    UZF RECHARGE" ON UNIT  61 AT TIME STEP  1, STRESS PERIOD   2
 UBDSV3 SAVING " SURFACE LEAKAGE" ON UNIT  61 AT TIME STEP  1, STRESS PERIOD   2
 UBDSV3 SAVING "       HORT+DUNN" ON UNIT  61 AT TIME STEP  1, STRESS PERIOD   2
 UBDSV3 SAVING "  STORAGE CHANGE" ON UNIT  61 AT TIME STEP  1, STRESS PERIOD   2


UNSATURATED ZONE PACKAGE VOLUMETRIC BUDGET FOR  TIME STEP     1 STRESS PERIOD    2
  ------------------------------------------------------------------------------



     CUMULATIVE VOLUMES      L**3       RATES FOR THIS TIME STEP      L**3/T
     ------------------                 ------------------------

           IN:                                      IN:
           ---                                      ---
        INFILTRATION =      459614.8186          INFILTRATION =           4.4075

          OUT:                                     OUT:
          ----                                     ----
              UZF ET =       63558.2499                UZF ET =           0.7250
        UZF RECHARGE =       73224.0000          UZF RECHARGE =       0.0000E+00

            IN - OUT =      322832.5687              IN - OUT =           3.6825

          STORAGE:                                 STORAGE:
          --------                                 --------
      STORAGE CHANGE =      322832.5671        STORAGE CHANGE =           3.6825

 PERCENT DISCREPANCY IS DIFFERENCE BETWEEN IN-OUT MINUS CHANGE IN STORAGE
 DIVIDED BY THE AVERAGE OF IN AND OUT TIMES 100

 PERCENT DISCREPANCY =           0.00     PERCENT DISCREPANCY =           0.00






 

            AG WELLS      PERIOD    2   STEP   1
 AG WELL      1   LAYER   1   ROW     6   COL     4   RATE     0.00000    
 AG WELL      2   LAYER   1   ROW     6   COL     5   RATE     0.00000    
 AG WELL      3   LAYER   1   ROW     7   COL     4   RATE     0.00000    
 AG WELL      4   LAYER   1   ROW     7   COL     5   RATE     0.00000    
 AG WELL      5   LAYER   1   ROW     8   COL     4   RATE     0.00000    
 AG WELL      6   LAYER   1   ROW     8   COL     5   RATE     0.00000    
 
 

   DIVERSION SEGMENTS     PERIOD    2   STEP   1
 
 

        SW IRRIGATION     PERIOD    2   STEP   1
 
 

        GW IRRIGATION     PERIOD    2   STEP   1
 
1
  VOLUMETRIC BUDGET FOR AGRICULTURAL FIELDS AT  END OF TIME STEP    1, STRESS PERIOD   2
  ------------------------------------------------------------------------------

     CUMULATIVE VOLUMES      L**3       RATES FOR THIS TIME STEP      L**3/T
     ------------------                 ------------------------

           IN:                                      IN:
           ---                                      ---
               AG WELLS  =           0.0000                 AG WELLS  =           0.0000
      DIVERSION SEGMENTS =           0.0000        DIVERSION SEGMENTS =           0.0000
           GW IRRIGATION =           0.0000             GW IRRIGATION =           0.0000
           SW IRRIGATION =           0.0000             SW IRRIGATION =           0.0000
        SYSTEM LOSSES GW =           0.0000          SYSTEM LOSSES GW =           0.0000
        SYSTEM LOSSES SW =           0.0000          SYSTEM LOSSES SW =           0.0000

                TOTAL IN =           0.0000                  TOTAL IN =           0.0000

          OUT:                                     OUT:
          ----                                     ----
               AG WELLS  =           0.0000                 AG WELLS  =           0.0000
      DIVERSION SEGMENTS =           0.0000        DIVERSION SEGMENTS =           0.0000
           GW IRRIGATION =           0.0000             GW IRRIGATION =           0.0000
           SW IRRIGATION =           0.0000             SW IRRIGATION =           0.0000
        SYSTEM LOSSES GW =           0.0000          SYSTEM LOSSES GW =           0.0000
        SYSTEM LOSSES SW =           0.0000          SYSTEM LOSSES SW =           0.0000

               TOTAL OUT =           0.0000                 TOTAL OUT =           0.0000

                IN - OUT =           0.0000                  IN - OUT =           0.0000

     PERCENT DISCREPANCY =           0.00         PERCENT DISCREPANCY =           0.00



1
              HEAD IN LAYER   1 AT END OF TIME STEP   1 IN STRESS PERIOD    2
  ---------------------------------------------------------------------------

           1       2       3       4       5       6       7       8       9      10
 ...................................................................................
   1  1032.36 1031.32 6999.00 6999.00 6999.00 6999.00 6999.00 6999.00 6999.00 6999.00
   2  1031.40 1030.17 1029.58 6999.00 6999.00 1030.68 1030.83 1030.79 6999.00 6999.00
   3  6999.00 1029.27 1028.96 1028.74 1029.28 1029.91 1030.40 1030.37 6999.00 6999.00
   4  1028.57 1028.53 1028.35 1028.17 1028.24 1028.30 1028.78 1029.83 1029.56 6999.00
   5  1028.13 1027.76 1027.59 1027.51 1027.61 1027.82 1027.99 1028.47 1029.10 1029.63
   6  1027.57 1027.02 1026.83 1026.81 1026.93 1027.26 1027.55 1028.08 1028.52 1029.45
   7  1027.07 1026.08 1025.92 1025.96 1026.14 1026.55 1026.98 1027.45 1027.96 6999.00
   8  6999.00 1024.71 1024.75 1024.91 1025.15 1025.65 1026.08 1026.80 1027.36 6999.00
   9  6999.00 1022.70 1023.03 1023.48 1023.88 1024.53 1025.05 1025.79 1026.91 6999.00
  10  6999.00 1019.87 1020.64 1021.69 1022.47 1023.49 1024.39 1025.46 1027.07 1027.71
  11  6999.00 1015.35 1016.78 1019.32 1020.96 1022.69 1024.22 1026.00 1028.19 6999.00
  12  1001.91 1007.94 1012.08 1016.04 1019.32 1022.30 1024.79 1028.19 1031.18 6999.00
  13   995.56 1000.38 1006.89 1012.87 1018.23 1022.75 1027.05 1031.79 1034.63 6999.00
  14  6999.00 1005.79 1008.88 1013.53 1018.29 1022.70 1027.60 1033.07 1037.48 6999.00
  15  6999.00 6999.00 1012.52 1015.24 1018.71 1021.73 6999.00 6999.00 6999.00 6999.00
1
  VOLUMETRIC BUDGET FOR ENTIRE MODEL AT END OF TIME STEP    1, STRESS PERIOD   2
  ------------------------------------------------------------------------------

     CUMULATIVE VOLUMES      L**3       RATES FOR THIS TIME STEP      L**3/T
     ------------------                 ------------------------

           IN:                                      IN:
           ---                                      ---
             STORAGE     =       66736.4922               STORAGE     =           0.7613
       CONSTANT HEAD     =           0.0000         CONSTANT HEAD     =           0.0000
     HEAD DEP BOUNDS     =       49716.9844       HEAD DEP BOUNDS     =           0.2856
      STREAM LEAKAGE     =     1877049.8750        STREAM LEAKAGE     =          11.2667
        UZF RECHARGE     =       73223.9531          UZF RECHARGE     =           0.0000
               GW ET     =           0.0000                 GW ET     =           0.0000
     SURFACE LEAKAGE     =           0.0000       SURFACE LEAKAGE     =           0.0000
           AG WELLS      =           0.0000             AG WELLS      =           0.0000

                TOTAL IN =     2066727.3750                  TOTAL IN =          12.3136

          OUT:                                     OUT:
          ----                                     ----
             STORAGE     =      159712.3594               STORAGE     =           1.8218
       CONSTANT HEAD     =           0.0000         CONSTANT HEAD     =           0.0000
     HEAD DEP BOUNDS     =       49975.0312       HEAD DEP BOUNDS     =           0.2871
      STREAM LEAKAGE     =     1857065.8750        STREAM LEAKAGE     =          10.2049
        UZF RECHARGE     =           0.0000          UZF RECHARGE     =           0.0000
               GW ET     =           0.0000                 GW ET     =           0.0000
     SURFACE LEAKAGE     =           0.0000       SURFACE LEAKAGE     =           0.0000
           AG WELLS      =           0.0000             AG WELLS      =           0.0000

               TOTAL OUT =     2066753.2500                 TOTAL OUT =          12.3139

                IN - OUT =         -25.8750                  IN - OUT =      -2.9659E-04

     PERCENT DISCREPANCY =          -0.00         PERCENT DISCREPANCY =          -0.00






         TIME SUMMARY AT END OF TIME STEP    1 IN STRESS PERIOD    2
                    SECONDS     MINUTES      HOURS       DAYS        YEARS
                    -----------------------------------------------------------
   TIME STEP LENGTH  87667.      1461.1      24.352      1.0147     2.77799E-03
 STRESS PERIOD TIME  87667.      1461.1      24.352      1.0147     2.77799E-03
         TOTAL TIME 1.74067E+05  2901.1      48.352      2.0147     5.51584E-03
1
 
 SOLVING FOR HEAD 
                                                   Max.-Head-Change                         Max.-Flux-Residual
  Residual-Control   Outer-Iter.   Inner-Iter.     Column Row Layer    Maximum-Head-Change  Column Row Layer    Maximum-Flux-Residual          L2-NORM 
          0                 1           2             2   13     1       0.4141567829E-02       4   13    1         0.2347411467E+00      0.5289462972E+00
          0                 2           2             4   13     1      -0.3943827278E-03       4   13    1        -0.2322455848E-01      0.5190261337E-01
          0                 3           1             4   13     1       0.2644622852E-04       4   13    1         0.1601220055E-02      0.3472911116E-02

    ------------------------------------------------
       NWT REQUIRED            3 OUTER ITERATIONS 
       AND A TOTAL OF          5 INNER ITERATIONS.
    ------------------------------------------------

 NO OUTPUT CONTROL FOR STRESS PERIOD    2   TIME STEP    2
 
 SOLVING FOR HEAD 
                                                   Max.-Head-Change                         Max.-Flux-Residual
  Residual-Control   Outer-Iter.   Inner-Iter.     Column Row Layer    Maximum-Head-Change  Column Row Layer    Maximum-Flux-Residual          L2-NORM 
          0                 1           2             2   13     1       0.3838338935E-02       2   13    1         0.2157833925E+00      0.5018930631E+00
          0                 2           2             4   13     1      -0.3580945565E-03       4   13    1        -0.2107562551E-01      0.4933920941E-01
          0                 3           1             4   13     1       0.2402229969E-04       4   13    1         0.1453618458E-02      0.3374738389E-02

    ------------------------------------------------
       NWT REQUIRED            3 OUTER ITERATIONS 
       AND A TOTAL OF          5 INNER ITERATIONS.
    ------------------------------------------------

 NO OUTPUT CONTROL FOR STRESS PERIOD    2   TIME STEP    3
 
 SOLVING FOR HEAD 
                                                   Max.-Head-Change                         Max.-Flux-Residual
  Residual-Control   Outer-Iter.   Inner-Iter.     Column Row Layer    Maximum-Head-Change  Column Row Layer    Maximum-Flux-Residual          L2-NORM 
          0                 1           2             2   13     1       0.3557560576E-02       2   13    1         0.1999768282E+00      0.4775492249E+00
          0                 2           2             2   13     1      -0.3313340027E-03       2   13    1        -0.1914539807E-01      0.4698968496E-01
          0                 3           1             4   13     1       0.2180655103E-04       4   13    1         0.1318746366E-02      0.3217628859E-02

    ------------------------------------------------
       NWT REQUIRED            3 OUTER ITERATIONS 
       AND A TOTAL OF          5 INNER ITERATIONS.
    ------------------------------------------------

 NO OUTPUT CONTROL FOR STRESS PERIOD    2   TIME STEP    4
 
 SOLVING FOR HEAD 
                                                   Max.-Head-Change                         Max.-Flux-Residual
  Residual-Control   Outer-Iter.   Inner-Iter.     Column Row Layer    Maximum-Head-Change  Column Row Layer    Maximum-Flux-Residual          L2-NORM 
          0                 1           2             2   13     1       0.3297603159E-02       2   13    1         0.1853434576E+00      0.4556429483E+00
          0                 2           2             2    2     1      -0.3075700819E-03       2   13    1        -0.1774982624E-01      0.4487597735E-01
          0                 3           1             2    2     1       0.2094437799E-04       4   13    1         0.1198295056E-02      0.3077367678E-02

    ------------------------------------------------
       NWT REQUIRED            3 OUTER ITERATIONS 
       AND A TOTAL OF          5 INNER ITERATIONS.
    ------------------------------------------------

 NO OUTPUT CONTROL FOR STRESS PERIOD    2   TIME STEP    5
 
 SOLVING FOR HEAD 
                                                   Max.-Head-Change                         Max.-Flux-Residual
  Residual-Control   Outer-Iter.   Inner-Iter.     Column Row Layer    Maximum-Head-Change  Column Row Layer    Maximum-Flux-Residual          L2-NORM 
          0                 1           2             2    2     1       0.3137740510E-02       2   13    1         0.1717990377E+00      0.4359297600E+00
          0                 2           2             2    2     1      -0.3052170236E-03       2   13    1        -0.1645826353E-01      0.4296862532E-01
          0                 3           1             2    2     1       0.2078414356E-04       2    2    1         0.1148336450E-02      0.2951048207E-02

    ------------------------------------------------
       NWT REQUIRED            3 OUTER ITERATIONS 
       AND A TOTAL OF          5 INNER ITERATIONS.
    ------------------------------------------------

 NO OUTPUT CONTROL FOR STRESS PERIOD    2   TIME STEP    6
 
 SOLVING FOR HEAD 
                                                   Max.-Head-Change                         Max.-Flux-Residual
  Residual-Control   Outer-Iter.   Inner-Iter.     Column Row Layer    Maximum-Head-Change  Column Row Layer    Maximum-Flux-Residual          L2-NORM 
          0                 1           2             2    2     1       0.3113901317E-02       2    2    1         0.1627934642E+00      0.4182075210E+00
          0                 2           2             2    2     1      -0.3028981112E-03       2    2    1        -0.1627937468E-01      0.4126783402E-01
          0                 3           1             2    2     1       0.2062623468E-04       2    2    1         0.1139556463E-02      0.2836956743E-02

    ------------------------------------------------
       NWT REQUIRED            3 OUTER ITERATIONS 
       AND A TOTAL OF          5 INNER ITERATIONS.
    ------------------------------------------------

 NO OUTPUT CONTROL FOR STRESS PERIOD    2   TIME STEP    7
 
 SOLVING FOR HEAD 
                                                   Max.-Head-Change                         Max.-Flux-Residual
  Residual-Control   Outer-Iter.   Inner-Iter.     Column Row Layer    Maximum-Head-Change  Column Row Layer    Maximum-Flux-Residual          L2-NORM 
          0                 1           2             2    2     1       0.3090495649E-02       2    2    1         0.1615619587E+00      0.4022468357E+00
          0                 2           2             2    2     1      -0.3006213691E-03       2    2    1        -0.1615622356E-01      0.3973034171E-01
          0                 3           1             2    2     1       0.2047119641E-04       2    2    1         0.1130935869E-02      0.2735582411E-02

    ------------------------------------------------
       NWT REQUIRED            3 OUTER ITERATIONS 
       AND A TOTAL OF          5 INNER ITERATIONS.
    ------------------------------------------------

 NO OUTPUT CONTROL FOR STRESS PERIOD    2   TIME STEP    8
 
 SOLVING FOR HEAD 
                                                   Max.-Head-Change                         Max.-Flux-Residual
  Residual-Control   Outer-Iter.   Inner-Iter.     Column Row Layer    Maximum-Head-Change  Column Row Layer    Maximum-Flux-Residual          L2-NORM 
          0                 1           2             2    2     1       0.3067343331E-02       2    2    1         0.1603438671E+00      0.3878723919E+00
          0                 2           2             2    2     1      -0.2983692713E-03       2    2    1        -0.1603441384E-01      0.3834575442E-01
          0                 3           1             2    2     1       0.2031783733E-04       2    2    1         0.1122409198E-02      0.2643308574E-02

    ------------------------------------------------
       NWT REQUIRED            3 OUTER ITERATIONS 
       AND A TOTAL OF          5 INNER ITERATIONS.
    ------------------------------------------------

 NO OUTPUT CONTROL FOR STRESS PERIOD    2   TIME STEP    9
 
 SOLVING FOR HEAD 
                                                   Max.-Head-Change                         Max.-Flux-Residual
  Residual-Control   Outer-Iter.   Inner-Iter.     Column Row Layer    Maximum-Head-Change  Column Row Layer    Maximum-Flux-Residual          L2-NORM 
          0                 1           2             2    2     1       0.3044526558E-02       2    2    1         0.1591434435E+00      0.3749208043E+00
          0                 2           2             2    2     1      -0.2961498132E-03       2    2    1        -0.1591437092E-01      0.3709864994E-01
          0                 3           1             2    2     1       0.2016670038E-04       2    2    1         0.1114006197E-02      0.2560663195E-02

    ------------------------------------------------
       NWT REQUIRED            3 OUTER ITERATIONS 
       AND A TOTAL OF          5 INNER ITERATIONS.
    ------------------------------------------------

 NO OUTPUT CONTROL FOR STRESS PERIOD    2   TIME STEP   10
 
 SOLVING FOR HEAD 
                                                   Max.-Head-Change                         Max.-Flux-Residual
  Residual-Control   Outer-Iter.   Inner-Iter.     Column Row Layer    Maximum-Head-Change  Column Row Layer    Maximum-Flux-Residual          L2-NORM 
          0                 1           2             2    2     1       0.3021953127E-02       2    2    1         0.1579558851E+00      0.3632354482E+00
          0                 2           2             2    2     1      -0.2939540259E-03       2    2    1        -0.1579561455E-01      0.3597230015E-01
          0                 3           1             2    2     1       0.2001717589E-04       2    2    1         0.1105693255E-02      0.2484789175E-02

    ------------------------------------------------
       NWT REQUIRED            3 OUTER ITERATIONS 
       AND A TOTAL OF          5 INNER ITERATIONS.
    ------------------------------------------------

 NO OUTPUT CONTROL FOR STRESS PERIOD    2   TIME STEP   11
 
 SOLVING FOR HEAD 
                                                   Max.-Head-Change                         Max.-Flux-Residual
  Residual-Control   Outer-Iter.   Inner-Iter.     Column Row Layer    Maximum-Head-Change  Column Row Layer    Maximum-Flux-Residual          L2-NORM 
          0                 1           2             2    2     1       0.2999790138E-02       2    2    1         0.1567898857E+00      0.3526763226E+00
          0                 2           2             2    2     1      -0.2917981636E-03       2    2    1        -0.1567901409E-01      0.3495527879E-01
          0                 3           1             2    2     1       0.1987036959E-04       2    2    1         0.1097531223E-02      0.2417538698E-02

    ------------------------------------------------
       NWT REQUIRED            3 OUTER ITERATIONS 
       AND A TOTAL OF          5 INNER ITERATIONS.
    ------------------------------------------------

 NO OUTPUT CONTROL FOR STRESS PERIOD    2   TIME STEP   12
 
 SOLVING FOR HEAD 
                                                   Max.-Head-Change                         Max.-Flux-Residual
  Residual-Control   Outer-Iter.   Inner-Iter.     Column Row Layer    Maximum-Head-Change  Column Row Layer    Maximum-Flux-Residual          L2-NORM 
          0                 1           2             2    2     1       0.2977862084E-02       2    2    1         0.1556363479E+00      0.3431300208E+00
          0                 2           2             2    2     1      -0.2896651535E-03       2    2    1        -0.1556365978E-01      0.3403436794E-01
          0                 3           1             2    2     1       0.1972511942E-04       2    2    1         0.1089456414E-02      0.2356534371E-02

    ------------------------------------------------
       NWT REQUIRED            3 OUTER ITERATIONS 
       AND A TOTAL OF          5 INNER ITERATIONS.
    ------------------------------------------------

 NO OUTPUT CONTROL FOR STRESS PERIOD    2   TIME STEP   13
 
 SOLVING FOR HEAD 
                                                   Max.-Head-Change                         Max.-Flux-Residual
  Residual-Control   Outer-Iter.   Inner-Iter.     Column Row Layer    Maximum-Head-Change  Column Row Layer    Maximum-Flux-Residual          L2-NORM 
          0                 1           2             2    2     1       0.2956249550E-02       2    2    1         0.1544994010E+00      0.3344791056E+00
          0                 2           2             2    2     1      -0.2875628368E-03       2    2    1        -0.1544996463E-01      0.3319850755E-01
          0                 3           1             2    2     1       0.1958195931E-04       2    2    1         0.1081497764E-02      0.2301383782E-02

    ------------------------------------------------
       NWT REQUIRED            3 OUTER ITERATIONS 
       AND A TOTAL OF          5 INNER ITERATIONS.
    ------------------------------------------------

 NO OUTPUT CONTROL FOR STRESS PERIOD    2   TIME STEP   14
 
 SOLVING FOR HEAD 
                                                   Max.-Head-Change                         Max.-Flux-Residual
  Residual-Control   Outer-Iter.   Inner-Iter.     Column Row Layer    Maximum-Head-Change  Column Row Layer    Maximum-Flux-Residual          L2-NORM 
          0                 1           2             2    2     1       0.2934947023E-02       2    2    1         0.1533788134E+00      0.3266298030E+00
          0                 2           2             2    2     1      -0.2854906742E-03       2    2    1        -0.1533790538E-01      0.3244365653E-01
          0                 3           1             2    2     1       0.1944085281E-04       2    2    1         0.1073653616E-02      0.2250867102E-02

    ------------------------------------------------
       NWT REQUIRED            3 OUTER ITERATIONS 
       AND A TOTAL OF          5 INNER ITERATIONS.
    ------------------------------------------------

 NO OUTPUT CONTROL FOR STRESS PERIOD    2   TIME STEP   15
 
 SOLVING FOR HEAD 
                                                   Max.-Head-Change                         Max.-Flux-Residual
  Residual-Control   Outer-Iter.   Inner-Iter.     Column Row Layer    Maximum-Head-Change  Column Row Layer    Maximum-Flux-Residual          L2-NORM 
          0                 1           2             2    2     1       0.2913949801E-02       2    2    1         0.1522742994E+00      0.3194856918E+00
          0                 2           2             2    2     1      -0.2834482098E-03       2    2    1        -0.1522745350E-01      0.3175100896E-01
          0                 3           1             2    2     1       0.1930176892E-04       2    2    1         0.1065921982E-02      0.2204628142E-02

    ------------------------------------------------
       NWT REQUIRED            3 OUTER ITERATIONS 
       AND A TOTAL OF          5 INNER ITERATIONS.
    ------------------------------------------------

 NO OUTPUT CONTROL FOR STRESS PERIOD    2   TIME STEP   16
 
 SOLVING FOR HEAD 
                                                   Max.-Head-Change                         Max.-Flux-Residual
  Residual-Control   Outer-Iter.   Inner-Iter.     Column Row Layer    Maximum-Head-Change  Column Row Layer    Maximum-Flux-Residual          L2-NORM 
          0                 1           2             2    2     1       0.2893252902E-02       2    2    1         0.1511856151E+00      0.3129776772E+00
          0                 2           2             2    2     1      -0.2814349584E-03       2    2    1        -0.1511858460E-01      0.3112435695E-01
          0                 3           1             2    2     1       0.1916467356E-04       2    2    1         0.1058301142E-02      0.2162705682E-02

    ------------------------------------------------
       NWT REQUIRED            3 OUTER ITERATIONS 
       AND A TOTAL OF          5 INNER ITERATIONS.
    ------------------------------------------------

 NO OUTPUT CONTROL FOR STRESS PERIOD    2   TIME STEP   17
 
 SOLVING FOR HEAD 
                                                   Max.-Head-Change                         Max.-Flux-Residual
  Residual-Control   Outer-Iter.   Inner-Iter.     Column Row Layer    Maximum-Head-Change  Column Row Layer    Maximum-Flux-Residual          L2-NORM 
          0                 1           2             2    2     1       0.2872764718E-02       2    2    1         0.1501079693E+00      0.3070295779E+00
          0                 2           2             2    2     1      -0.2794420110E-03       2    2    1        -0.1501081961E-01      0.3054914228E-01
          0                 3           1             2    2     1       0.1902896203E-04       2    2    1         0.1050757625E-02      0.2124245493E-02

    ------------------------------------------------
       NWT REQUIRED            3 OUTER ITERATIONS 
       AND A TOTAL OF          5 INNER ITERATIONS.
    ------------------------------------------------

 NO OUTPUT CONTROL FOR STRESS PERIOD    2   TIME STEP   18
 
 SOLVING FOR HEAD 
                                                   Max.-Head-Change                         Max.-Flux-Residual
  Residual-Control   Outer-Iter.   Inner-Iter.     Column Row Layer    Maximum-Head-Change  Column Row Layer    Maximum-Flux-Residual          L2-NORM 
          0                 1           2             2    2     1       0.2852655321E-02       2    2    1         0.1490502110E+00      0.3015723893E+00
          0                 2           2             2    2     1      -0.2774859081E-03       2    2    1        -0.1490504333E-01      0.3001308054E-01
          0                 3           1             2    2     1       0.1889575829E-04       2    2    1         0.1043353275E-02      0.2088221353E-02

    ------------------------------------------------
       NWT REQUIRED            3 OUTER ITERATIONS 
       AND A TOTAL OF          5 INNER ITERATIONS.
    ------------------------------------------------

 NO OUTPUT CONTROL FOR STRESS PERIOD    2   TIME STEP   19
 
 SOLVING FOR HEAD 
                                                   Max.-Head-Change                         Max.-Flux-Residual
  Residual-Control   Outer-Iter.   Inner-Iter.     Column Row Layer    Maximum-Head-Change  Column Row Layer    Maximum-Flux-Residual          L2-NORM 
          0                 1           2             2    2     1       0.2832745079E-02       2    2    1         0.1480030265E+00      0.2965746176E+00
          0                 2           2             2    2     1      -0.2755491782E-03       2    2    1        -0.1480032446E-01      0.2953618109E-01
          0                 3           1             2    2     1       0.1876387424E-04       2    2    1         0.1036022952E-02      0.2056153671E-02

    ------------------------------------------------
       NWT REQUIRED            3 OUTER ITERATIONS 
       AND A TOTAL OF          5 INNER ITERATIONS.
    ------------------------------------------------

 NO OUTPUT CONTROL FOR STRESS PERIOD    2   TIME STEP   20
 
 SOLVING FOR HEAD 
                                                   Max.-Head-Change                         Max.-Flux-Residual
  Residual-Control   Outer-Iter.   Inner-Iter.     Column Row Layer    Maximum-Head-Change  Column Row Layer    Maximum-Flux-Residual          L2-NORM 
          0                 1           2             2    2     1       0.2813117513E-02       2    2    1         0.1469707009E+00      0.2919610593E+00
          0                 2           2             2    2     1      -0.2736399446E-03       2    2    1        -0.1469709147E-01      0.2908855442E-01
          0                 3           1             2    2     1       0.1863386275E-04       2    2    1         0.1028796640E-02      0.2026683242E-02

    ------------------------------------------------
       NWT REQUIRED            3 OUTER ITERATIONS 
       AND A TOTAL OF          5 INNER ITERATIONS.
    ------------------------------------------------

 NO OUTPUT CONTROL FOR STRESS PERIOD    2   TIME STEP   21
 
 SOLVING FOR HEAD 
                                                   Max.-Head-Change                         Max.-Flux-Residual
  Residual-Control   Outer-Iter.   Inner-Iter.     Column Row Layer    Maximum-Head-Change  Column Row Layer    Maximum-Flux-Residual          L2-NORM 
          0                 1           2             2    2     1       0.2793767698E-02       2    2    1         0.1459530318E+00      0.2876971088E+00
          0                 2           2             2    2     1      -0.2717577292E-03       2    2    1        -0.1459532415E-01      0.2867435166E-01
          0                 3           1             2    2     1       0.1850569092E-04       2    2    1         0.1021672937E-02      0.1998437461E-02

    ------------------------------------------------
       NWT REQUIRED            3 OUTER ITERATIONS 
       AND A TOTAL OF          5 INNER ITERATIONS.
    ------------------------------------------------

 NO OUTPUT CONTROL FOR STRESS PERIOD    2   TIME STEP   22
 
 SOLVING FOR HEAD 
                                                   Max.-Head-Change                         Max.-Flux-Residual
  Residual-Control   Outer-Iter.   Inner-Iter.     Column Row Layer    Maximum-Head-Change  Column Row Layer    Maximum-Flux-Residual          L2-NORM 
          0                 1           2             2    2     1       0.2774691482E-02       2    2    1         0.1449497637E+00      0.2837509583E+00
          0                 2           2             2    2     1      -0.2699021276E-03       2    2    1        -0.1449499694E-01      0.2828998630E-01
          0                 3           1             2    2     1       0.1837933153E-04       2    2    1         0.1014650039E-02      0.1972687640E-02

    ------------------------------------------------
       NWT REQUIRED            3 OUTER ITERATIONS 
       AND A TOTAL OF          5 INNER ITERATIONS.
    ------------------------------------------------

 NO OUTPUT CONTROL FOR STRESS PERIOD    2   TIME STEP   23
 
 SOLVING FOR HEAD 
                                                   Max.-Head-Change                         Max.-Flux-Residual
  Residual-Control   Outer-Iter.   Inner-Iter.     Column Row Layer    Maximum-Head-Change  Column Row Layer    Maximum-Flux-Residual          L2-NORM 
          0                 1           2             2    2     1       0.2755889506E-02       2    2    1         0.1439609271E+00      0.2800871321E+00
          0                 2           2             2    2     1      -0.2680732023E-03       2    2    1        -0.1439611290E-01      0.2793342822E-01
          0                 3           1             2    2     1       0.1825478814E-04       2    2    1         0.1007728147E-02      0.1948876106E-02

    ------------------------------------------------
       NWT REQUIRED            3 OUTER ITERATIONS 
       AND A TOTAL OF          5 INNER ITERATIONS.
    ------------------------------------------------

 NO OUTPUT CONTROL FOR STRESS PERIOD    2   TIME STEP   24
 
 SOLVING FOR HEAD 
                                                   Max.-Head-Change                         Max.-Flux-Residual
  Residual-Control   Outer-Iter.   Inner-Iter.     Column Row Layer    Maximum-Head-Change  Column Row Layer    Maximum-Flux-Residual          L2-NORM 
          0                 1           2             2    2     1       0.2737260862E-02       2    2    1         0.1429812849E+00      0.2766709804E+00
          0                 2           2             2    2     1      -0.2662611375E-03       2    2    1        -0.1429814831E-01      0.2759991350E-01
          0                 3           1             2    2     1       0.1813139356E-04       2    2    1         0.1000870625E-02      0.1925838917E-02

    ------------------------------------------------
       NWT REQUIRED            3 OUTER ITERATIONS 
       AND A TOTAL OF          5 INNER ITERATIONS.
    ------------------------------------------------

 NO OUTPUT CONTROL FOR STRESS PERIOD    2   TIME STEP   25
 
 SOLVING FOR HEAD 
                                                   Max.-Head-Change                         Max.-Flux-Residual
  Residual-Control   Outer-Iter.   Inner-Iter.     Column Row Layer    Maximum-Head-Change  Column Row Layer    Maximum-Flux-Residual          L2-NORM 
          0                 1           2             2    2     1       0.2718893457E-02       2    2    1         0.1420154088E+00      0.2734794250E+00
          0                 2           2             2    2     1      -0.2644744838E-03       2    2    1        -0.1420156031E-01      0.2728812394E-01
          0                 3           1             2    2     1       0.1800972858E-04       2    2    1         0.9941094490E-03      0.1904832915E-02

    ------------------------------------------------
       NWT REQUIRED            3 OUTER ITERATIONS 
       AND A TOTAL OF          5 INNER ITERATIONS.
    ------------------------------------------------

 NO OUTPUT CONTROL FOR STRESS PERIOD    2   TIME STEP   26
 
 SOLVING FOR HEAD 
                                                   Max.-Head-Change                         Max.-Flux-Residual
  Residual-Control   Outer-Iter.   Inner-Iter.     Column Row Layer    Maximum-Head-Change  Column Row Layer    Maximum-Flux-Residual          L2-NORM 
          0                 1           2             2    2     1       0.2700870188E-02       2    2    1         0.1410676114E+00      0.2704895005E+00
          0                 2           2             2    2     1      -0.2627213064E-03       2    2    1        -0.1410678023E-01      0.2699536118E-01
          0                 3           1             2    2     1       0.1789034443E-04       2    2    1         0.9874748744E-03      0.1885006744E-02

    ------------------------------------------------
       NWT REQUIRED            3 OUTER ITERATIONS 
       AND A TOTAL OF          5 INNER ITERATIONS.
    ------------------------------------------------

 NO OUTPUT CONTROL FOR STRESS PERIOD    2   TIME STEP   27
 
 SOLVING FOR HEAD 
                                                   Max.-Head-Change                         Max.-Flux-Residual
  Residual-Control   Outer-Iter.   Inner-Iter.     Column Row Layer    Maximum-Head-Change  Column Row Layer    Maximum-Flux-Residual          L2-NORM 
          0                 1           2             2    2     1       0.2683013105E-02       2    2    1         0.1401285895E+00      0.2676811076E+00
          0                 2           2             2    2     1      -0.2609842935E-03       2    2    1        -0.1401287769E-01      0.2672016137E-01
          0                 3           1             2    2     1       0.1777206034E-04       2    2    1         0.9809016886E-03      0.1865878571E-02

    ------------------------------------------------
       NWT REQUIRED            3 OUTER ITERATIONS 
       AND A TOTAL OF          5 INNER ITERATIONS.
    ------------------------------------------------

 NO OUTPUT CONTROL FOR STRESS PERIOD    2   TIME STEP   28
 
 SOLVING FOR HEAD 
                                                   Max.-Head-Change                         Max.-Flux-Residual
  Residual-Control   Outer-Iter.   Inner-Iter.     Column Row Layer    Maximum-Head-Change  Column Row Layer    Maximum-Flux-Residual          L2-NORM 
          0                 1           2             2    2     1       0.2665405197E-02       2    2    1         0.1392027181E+00      0.2650364322E+00
          0                 2           2             2    2     1      -0.2592715192E-03       2    2    1        -0.1392029019E-01      0.2645959411E-01
          0                 3           1             2    2     1       0.1765542680E-04       2    2    1         0.9744205665E-03      0.1847101114E-02

    ------------------------------------------------
       NWT REQUIRED            3 OUTER ITERATIONS 
       AND A TOTAL OF          5 INNER ITERATIONS.
    ------------------------------------------------

 NO OUTPUT CONTROL FOR STRESS PERIOD    2   TIME STEP   29
 
 SOLVING FOR HEAD 
                                                   Max.-Head-Change                         Max.-Flux-Residual
  Residual-Control   Outer-Iter.   Inner-Iter.     Column Row Layer    Maximum-Head-Change  Column Row Layer    Maximum-Flux-Residual          L2-NORM 
          0                 1           2             2    2     1       0.2648042823E-02       2    2    1         0.1382897661E+00      0.2625379534E+00
          0                 2           2             2    2     1      -0.2575826289E-03       2    2    1        -0.1382899468E-01      0.2621543762E-01
          0                 3           1             2    2     1       0.1754041969E-04       2    2    1         0.9680298790E-03      0.1831627680E-02

    ------------------------------------------------
       NWT REQUIRED            3 OUTER ITERATIONS 
       AND A TOTAL OF          5 INNER ITERATIONS.
    ------------------------------------------------

 NO OUTPUT CONTROL FOR STRESS PERIOD    2   TIME STEP   30



 STREAM LISTING     PERIOD      2   STEP       30

 LAYER ROW COL. STREAM  RCH.  FLOW INTO     FLOW TO   FLOW OUT OF   OVRLND.     DIRECT     STREAM       STREAM     STREAM     STREAM   STREAMBED  STREAMBED
                SEG.NO.  NO.  STRM. RCH.    AQUIFER    STRM. RCH.    RUNOFF     PRECIP       ET          HEAD       DEPTH      WIDTH   CONDCTNC.   GRADIENT

   1    1    1     1     1    1.6500E+01  1.9759E-01   1.6302E+01  0.000E+00  0.000E+00  0.000E+00  1.09409E+03  1.039E+00  1.087E+01  4.893E-02  1.346E+00
   1    2    2     1     2    1.6302E+01  3.0466E-01   1.5998E+01  0.000E+00  0.000E+00  0.000E+00  1.08909E+03  1.034E+00  1.079E+01  7.552E-02  1.345E+00
   1    3    3     1     3    1.5998E+01  2.5853E-01   1.5739E+01  0.000E+00  0.000E+00  0.000E+00  1.08345E+03  1.029E+00  1.070E+01  6.417E-02  1.343E+00
   1    3    4     1     4    1.5739E+01  2.3700E-01   1.5502E+01  0.000E+00  0.000E+00  0.000E+00  1.07843E+03  1.024E+00  1.061E+01  5.889E-02  1.341E+00
   1    4    5     2     1    1.3502E+01  2.9865E-01   1.3204E+01  0.000E+00  0.000E+00  0.000E+00  1.07276E+03  8.289E-01  1.200E+01  7.800E-02  1.276E+00
   1    5    6     2     2    1.3204E+01  2.2914E-01   1.2974E+01  0.000E+00  0.000E+00  0.000E+00  1.06733E+03  8.190E-01  1.200E+01  6.000E-02  1.273E+00
   1    6    6     2     3    1.2974E+01  2.2862E-01   1.2746E+01  0.000E+00  0.000E+00  0.000E+00  1.06260E+03  8.104E-01  1.200E+01  6.000E-02  1.270E+00
   1    7    6     2     4    1.2746E+01  2.2810E-01   1.2518E+01  0.000E+00  0.000E+00  0.000E+00  1.05788E+03  8.017E-01  1.200E+01  6.000E-02  1.267E+00
   1    8    6     2     5    1.2518E+01  2.2758E-01   1.2290E+01  0.000E+00  0.000E+00  0.000E+00  1.05315E+03  7.930E-01  1.200E+01  6.000E-02  1.264E+00
   1    3    5     3     1    2.0000E+00  2.8252E-01   1.7175E+00  0.000E+00  0.000E+00  0.000E+00  1.07555E+03  1.909E+00  9.636E+00  7.227E-02  1.955E+00
   1    3    6     3     2    1.7175E+00  2.4905E-01   1.4684E+00  0.000E+00  0.000E+00  0.000E+00  1.07264E+03  1.727E+00  8.909E+00  6.682E-02  1.864E+00
   1    3    7     3     3    1.4684E+00  1.9718E-01   1.2712E+00  0.000E+00  0.000E+00  0.000E+00  1.06987E+03  1.555E+00  8.218E+00  5.547E-02  1.777E+00
   1    4    8     3     4    1.2712E+00  2.2567E-01   1.0456E+00  0.000E+00  0.000E+00  0.000E+00  1.06682E+03  1.364E+00  7.455E+00  6.709E-02  1.682E+00
   1    5    8     3     5    1.0456E+00  1.5790E-01   8.8768E-01  0.000E+00  0.000E+00  0.000E+00  1.06362E+03  1.164E+00  6.655E+00  4.991E-02  1.582E+00
   1    6    8     3     6    8.8768E-01  5.5980E-02   8.3170E-01  0.000E+00  0.000E+00  0.000E+00  1.06158E+03  1.036E+00  6.145E+00  1.844E-02  1.518E+00
   1    5   10     4     1    1.0000E+01  9.0919E-02   9.9091E+00  0.000E+00  0.000E+00  0.000E+00  1.07836E+03  6.368E-01  1.000E+01  2.500E-02  1.212E+00
   1    5    9     4     2    9.9091E+00  1.8158E-01   9.7275E+00  0.000E+00  0.000E+00  0.000E+00  1.07154E+03  6.315E-01  1.000E+01  5.000E-02  1.211E+00
   1    6    8     4     3    9.7275E+00  1.2689E-01   9.6006E+00  0.000E+00  0.000E+00  0.000E+00  1.06381E+03  6.256E-01  1.000E+01  3.500E-02  1.209E+00
   1    6    8     5     1    1.0432E+01  2.2686E-01   1.0205E+01  0.000E+00  0.000E+00  0.000E+00  1.05868E+03  6.790E-01  1.542E+01  6.166E-02  1.226E+00
   1    7    7     5     2    1.0205E+01  2.7894E-01   9.9265E+00  0.000E+00  0.000E+00  0.000E+00  1.05417E+03  6.732E-01  1.519E+01  7.594E-02  1.224E+00
   1    8    7     5     3    9.9265E+00  1.9221E-01   9.7343E+00  0.000E+00  0.000E+00  0.000E+00  1.04992E+03  6.676E-01  1.497E+01  5.241E-02  1.223E+00
   1    8    6     5     4    9.7343E+00  1.3577E-01   9.5985E+00  0.000E+00  0.000E+00  0.000E+00  1.04691E+03  6.637E-01  1.482E+01  3.706E-02  1.221E+00
   1    9    6     6     1    2.1889E+01  2.4742E-01   2.1641E+01  0.000E+00  0.000E+00  0.000E+00  1.04385E+03  1.124E+00  1.200E+01  6.000E-02  1.375E+00
   1   10    7     6     2    2.1641E+01  2.4696E-01   2.1394E+01  0.000E+00  0.000E+00  0.000E+00  1.03930E+03  1.116E+00  1.200E+01  6.000E-02  1.372E+00
   1   11    7     6     3    2.1394E+01  2.4650E-01   2.1148E+01  0.000E+00  0.000E+00  0.000E+00  1.03474E+03  1.108E+00  1.200E+01  6.000E-02  1.369E+00
   1   12    7     6     4    2.1148E+01  2.4603E-01   2.0902E+01  0.000E+00  0.000E+00  0.000E+00  1.03019E+03  1.101E+00  1.200E+01  6.000E-02  1.367E+00
   1   13    7     6     5    2.0902E+01 -1.7643E-02   2.0919E+01  0.000E+00  0.000E+00  0.000E+00  1.02701E+03  1.097E+00  1.200E+01  2.400E-01 -2.450E-02
   1   14    9     7     1    1.5000E+02  1.3345E+00   1.4867E+02  0.000E+00  0.000E+00  0.000E+00  1.03987E+03  2.288E+00  5.529E+01  5.593E-01  7.953E-01
   1   13    8     7     2    1.4867E+02  1.8340E+00   1.4683E+02  0.000E+00  0.000E+00  0.000E+00  1.03478E+03  2.279E+00  5.526E+01  6.148E-01  9.944E-01
   1   13    7     7     3    1.4683E+02  1.4577E+00   1.4537E+02  0.000E+00  0.000E+00  0.000E+00  1.02969E+03  2.271E+00  5.522E+01  5.585E-01  8.701E-01
   1   13    6     8     1    1.6629E+02  8.7801E-01   1.6542E+02  0.000E+00  0.000E+00  0.000E+00  1.02480E+03  2.925E+00  4.241E+01  4.322E-01  6.772E-01
   1   13    5     8     2    1.6542E+02  1.3043E-01   1.6528E+02  0.000E+00  0.000E+00  0.000E+00  1.01855E+03  2.922E+00  4.236E+01  4.317E-01  1.007E-01
   1   13    4     8     3    1.6528E+02 -2.6018E+00   1.6789E+02  0.000E+00  0.000E+00  0.000E+00  1.01230E+03  2.930E+00  4.248E+01  4.329E+00 -2.003E-01
   1   13    3     8     4    1.6789E+02 -3.7076E+00   1.7159E+02  0.000E+00  0.000E+00  0.000E+00  1.00608E+03  2.951E+00  4.278E+01  4.360E+00 -2.835E-01
   1   13    2     8     5    1.7159E+02 -2.5608E+00   1.7416E+02  0.000E+00  0.000E+00  0.000E+00  9.99846E+02  2.971E+00  4.308E+01  4.390E+00 -1.945E-01
   1   13    1     8     6    1.7416E+02 -1.9439E+00   1.7610E+02  0.000E+00  0.000E+00  0.000E+00  9.94860E+02  2.985E+00  4.329E+01  2.647E+00 -2.448E-01
   1    8    6     9     1    0.0000E+00  0.0000E+00   0.0000E+00  0.000E+00  0.000E+00  0.000E+00  1.07875E+03  0.000E+00  4.000E+00  0.000E+00  1.000E+00
   1    8    5     9     2    0.0000E+00  0.0000E+00   0.0000E+00  0.000E+00  0.000E+00  0.000E+00  1.07825E+03  0.000E+00  4.000E+00  0.000E+00  1.000E+00





UNSATURATED ZONE PACKAGE VOLUMETRIC BUDGET FOR  TIME STEP    30 STRESS PERIOD    2
  ------------------------------------------------------------------------------



     CUMULATIVE VOLUMES      L**3       RATES FOR THIS TIME STEP      L**3/T
     ------------------                 ------------------------

           IN:                                      IN:
           ---                                      ---
        INFILTRATION =    11664948.5581          INFILTRATION =           4.4075

          OUT:                                     OUT:
          ----                                     ----
              UZF ET =     1906749.8895                UZF ET =           0.7250
        UZF RECHARGE =       73224.0000          UZF RECHARGE =       0.0000E+00

            IN - OUT =     9684974.6686              IN - OUT =           3.6825

          STORAGE:                                 STORAGE:
          --------                                 --------
      STORAGE CHANGE =     9684974.6082        STORAGE CHANGE =           3.6825

 PERCENT DISCREPANCY IS DIFFERENCE BETWEEN IN-OUT MINUS CHANGE IN STORAGE
 DIVIDED BY THE AVERAGE OF IN AND OUT TIMES 100

 PERCENT DISCREPANCY =           0.00     PERCENT DISCREPANCY =           0.00






1
  VOLUMETRIC BUDGET FOR AGRICULTURAL FIELDS AT  END OF TIME STEP   30, STRESS PERIOD   2
  ------------------------------------------------------------------------------

     CUMULATIVE VOLUMES      L**3       RATES FOR THIS TIME STEP      L**3/T
     ------------------                 ------------------------

           IN:                                      IN:
           ---                                      ---
               AG WELLS  =           0.0000                 AG WELLS  =           0.0000
      DIVERSION SEGMENTS =           0.0000        DIVERSION SEGMENTS =           0.0000
           GW IRRIGATION =           0.0000             GW IRRIGATION =           0.0000
           SW IRRIGATION =           0.0000             SW IRRIGATION =           0.0000
        SYSTEM LOSSES GW =           0.0000          SYSTEM LOSSES GW =           0.0000
        SYSTEM LOSSES SW =           0.0000          SYSTEM LOSSES SW =           0.0000

                TOTAL IN =           0.0000                  TOTAL IN =           0.0000

          OUT:                                     OUT:
          ----                                     ----
               AG WELLS  =           0.0000                 AG WELLS  =           0.0000
      DIVERSION SEGMENTS =           0.0000        DIVERSION SEGMENTS =           0.0000
           GW IRRIGATION =           0.0000             GW IRRIGATION =           0.0000
           SW IRRIGATION =           0.0000             SW IRRIGATION =           0.0000
        SYSTEM LOSSES GW =           0.0000          SYSTEM LOSSES GW =           0.0000
        SYSTEM LOSSES SW =           0.0000          SYSTEM LOSSES SW =           0.0000

               TOTAL OUT =           0.0000                 TOTAL OUT =           0.0000

                IN - OUT =           0.0000                  IN - OUT =           0.0000

     PERCENT DISCREPANCY =           0.00         PERCENT DISCREPANCY =           0.00



1
  VOLUMETRIC BUDGET FOR ENTIRE MODEL AT END OF TIME STEP   30, STRESS PERIOD   2
  ------------------------------------------------------------------------------

     CUMULATIVE VOLUMES      L**3       RATES FOR THIS TIME STEP      L**3/T
     ------------------                 ------------------------

           IN:                                      IN:
           ---                                      ---
             STORAGE     =     1717158.0000               STORAGE     =           0.5919
       CONSTANT HEAD     =           0.0000         CONSTANT HEAD     =           0.0000
     HEAD DEP BOUNDS     =      775921.8750       HEAD DEP BOUNDS     =           0.2857
      STREAM LEAKAGE     =    30472192.0000        STREAM LEAKAGE     =          11.2329
        UZF RECHARGE     =       73223.9531          UZF RECHARGE     =           0.0000
               GW ET     =           0.0000                 GW ET     =           0.0000
     SURFACE LEAKAGE     =           0.0000       SURFACE LEAKAGE     =           0.0000
           AG WELLS      =           0.0000             AG WELLS      =           0.0000

                TOTAL IN =    33038496.0000                  TOTAL IN =          12.1105

          OUT:                                     OUT:
          ----                                     ----
             STORAGE     =     3367966.7500               STORAGE     =           0.9902
       CONSTANT HEAD     =           0.0000         CONSTANT HEAD     =           0.0000
     HEAD DEP BOUNDS     =      782283.9375       HEAD DEP BOUNDS     =           0.2886
      STREAM LEAKAGE     =    28888702.0000        STREAM LEAKAGE     =          10.8318
        UZF RECHARGE     =           0.0000          UZF RECHARGE     =           0.0000
               GW ET     =           0.0000                 GW ET     =           0.0000
     SURFACE LEAKAGE     =           0.0000       SURFACE LEAKAGE     =           0.0000
           AG WELLS      =           0.0000             AG WELLS      =           0.0000

               TOTAL OUT =    33038952.0000                 TOTAL OUT =          12.1106

                IN - OUT =        -456.0000                  IN - OUT =      -1.1063E-04

     PERCENT DISCREPANCY =          -0.00         PERCENT DISCREPANCY =          -0.00






         TIME SUMMARY AT END OF TIME STEP   30 IN STRESS PERIOD    2
                    SECONDS     MINUTES      HOURS       DAYS        YEARS
                    -----------------------------------------------------------
   TIME STEP LENGTH  87667.      1461.1      24.352      1.0147     2.77799E-03
 STRESS PERIOD TIME 2.63000E+06  43833.      730.56      30.440     8.33397E-02
         TOTAL TIME 2.71640E+06  45273.      754.56      31.440     8.60775E-02
1
1
                            STRESS PERIOD NO.    3, LENGTH =   2630000.    
                            -----------------------------------------------

                              NUMBER OF TIME STEPS =    30

                               MULTIPLIER FOR DELT =     1.000

                            INITIAL TIME STEP SIZE =   87666.66    

 REUSING NON-PARAMETER GHB CELLS FROM LAST STRESS PERIOD

      2 GHB CELLS

 REUSING STREAM SEGMENT DATA FROM LAST STRESS PERIOD



            AREAL INFILTRATION RATE
 READING ON UNIT   19 WITH FORMAT: (10F4.0)            

            1           2           3           4           5           6           7           8           9          10
 ........................................................................................................................
   1   1.2000E-09   0.000       0.000       0.000       0.000       0.000       0.000       0.000       0.000       0.000    
   2   2.1000E-09  2.0000E-09  8.0000E-10  8.5000E-09   0.000       0.000       0.000       0.000       0.000       0.000    
   3   5.0000E-10  1.1000E-09  8.8000E-09  5.5000E-09   0.000       0.000       0.000       0.000       0.000       0.000    
   4   8.5000E-09  1.1000E-09  1.1000E-09  1.1000E-09  2.0000E-09   0.000       0.000       0.000       0.000       0.000    
   5   8.5000E-09  1.1000E-09  1.1000E-09  1.1000E-09  1.1000E-09   0.000       0.000       0.000       0.000       0.000    
   6   8.5000E-09  5.2000E-09  2.1000E-09  1.1000E-09  1.5000E-09   0.000       0.000       0.000       0.000       0.000    
   7   8.5000E-09  5.2000E-09  2.1000E-09  1.2000E-09  2.0000E-09   0.000       0.000       0.000       0.000       0.000    
   8   5.0000E-10  5.2000E-09  2.1000E-09  1.2000E-09  5.0000E-09   0.000       0.000       0.000       0.000       0.000    
   9   5.0000E-10  5.2000E-09  2.1000E-09  1.2000E-09  5.0000E-09   0.000       0.000       0.000       0.000       0.000    
  10   5.0000E-10  5.2000E-09  2.1000E-09  1.2000E-09  5.8000E-09   0.000       0.000       0.000       0.000       0.000    
  11   1.0000E-10  1.1000E-09  1.1000E-09  1.2000E-09  5.0000E-09   0.000       0.000       0.000       0.000       0.000    
  12   1.1000E-09  1.1000E-09  1.1000E-09  1.1000E-09  2.0000E-09   0.000       0.000       0.000       0.000       0.000    
  13   1.1000E-09  2.2000E-09  2.2000E-09  2.1000E-09  1.0000E-09   0.000       0.000       0.000       0.000       0.000    
  14   2.0000E-10  5.5000E-09  5.5000E-09  5.2000E-09  1.0000E-09   0.000       0.000       0.000       0.000       0.000    
  15    0.000      8.8000E-09  8.8000E-09   0.000       0.000       0.000       0.000       0.000       0.000       0.000    

                  ET RATE =  5.000000E-10

 USING ET EXTINCTION DEPTH FROM PREVIOUS STRESS PERIOD. CURRENT PERIOD IS:       3

 USING EXTINCTION WATER CONTENT FROM PREVIOUS STRESS PERIOD. CURRENT PERIOD IS:       3

 USING AIR ENTRY PRESSURE FROM PREVIOUS STRESS PERIOD. CURRENT PERIOD IS:       3

 USING ROOT PRESSURE HEAD FROM PREVIOUS STRESS PERIOD. CURRENT PERIOD IS:       3

 USING ROOT ACTIVITY FROM PREVIOUS STRESS PERIOD. CURRENT PERIOD IS:       3

 PROCESSING AG STRESS PERIOD DATA

 READING AG STRESS PERIOD DATA

 READING IRRIGATION SEGMENT

 READING IRRIGATION WELL

 READING SUPPLEMENTAL WELL

 END PROCESSING AG STRESS PERIOD DATA OPTIONS
 
 SOLVING FOR HEAD 
                                                   Max.-Head-Change                         Max.-Flux-Residual
  Residual-Control   Outer-Iter.   Inner-Iter.     Column Row Layer    Maximum-Head-Change  Column Row Layer    Maximum-Flux-Residual          L2-NORM 
          0                 1           2             2    2     1       0.3921641502E-02       2    2    1         0.2048605772E+00      0.4998721792E+00
          0                 2           2             7   13     1      -0.6931962764E-03       7   13    1        -0.3837505641E-01      0.6128806198E-01
          0                 3           1             7   13     1       0.4719325130E-04       7   13    1         0.2685655209E-02      0.4240005798E-02

    ------------------------------------------------
       NWT REQUIRED            3 OUTER ITERATIONS 
       AND A TOTAL OF          5 INNER ITERATIONS.
    ------------------------------------------------

 NO OUTPUT CONTROL FOR STRESS PERIOD    3   TIME STEP    1
 
 SOLVING FOR HEAD 
                                                   Max.-Head-Change                         Max.-Flux-Residual
  Residual-Control   Outer-Iter.   Inner-Iter.     Column Row Layer    Maximum-Head-Change  Column Row Layer    Maximum-Flux-Residual          L2-NORM 
          0                 1           2             2   13     1       0.5737845648E-02       4   13    1         0.3262446722E+00      0.7450792259E+00
          0                 2           2             4   13     1      -0.5480857925E-03       4   13    1        -0.3228377861E-01      0.7315695521E-01
          0                 3           1             4   13     1       0.3677466679E-04       4   13    1         0.2227053900E-02      0.4995345420E-02

    ------------------------------------------------
       NWT REQUIRED            3 OUTER ITERATIONS 
       AND A TOTAL OF          5 INNER ITERATIONS.
    ------------------------------------------------

 NO OUTPUT CONTROL FOR STRESS PERIOD    3   TIME STEP    2
 
 SOLVING FOR HEAD 
                                                   Max.-Head-Change                         Max.-Flux-Residual
  Residual-Control   Outer-Iter.   Inner-Iter.     Column Row Layer    Maximum-Head-Change  Column Row Layer    Maximum-Flux-Residual          L2-NORM 
          0                 1           2             2   13     1       0.5310460796E-02       2   13    1         0.2989810456E+00      0.7084678737E+00
          0                 2           2             4   13     1      -0.4975464708E-03       4   13    1        -0.2928655917E-01      0.6963326787E-01
          0                 3           1             4   13     1       0.3335593238E-04       4   13    1         0.2018575286E-02      0.4760377661E-02

    ------------------------------------------------
       NWT REQUIRED            3 OUTER ITERATIONS 
       AND A TOTAL OF          5 INNER ITERATIONS.
    ------------------------------------------------

 NO OUTPUT CONTROL FOR STRESS PERIOD    3   TIME STEP    3
 
 SOLVING FOR HEAD 
                                                   Max.-Head-Change                         Max.-Flux-Residual
  Residual-Control   Outer-Iter.   Inner-Iter.     Column Row Layer    Maximum-Head-Change  Column Row Layer    Maximum-Flux-Residual          L2-NORM 
          0                 1           2             2   13     1       0.4915353577E-02       2   13    1         0.2767016626E+00      0.6757133827E+00
          0                 2           2             2    2     1      -0.4665860196E-03       4   13    1        -0.2658701694E-01      0.6648434402E-01
          0                 3           1             2    2     1       0.3177276925E-04       4   13    1         0.1834034501E-02      0.4552893793E-02

    ------------------------------------------------
       NWT REQUIRED            3 OUTER ITERATIONS 
       AND A TOTAL OF          5 INNER ITERATIONS.
    ------------------------------------------------

 NO OUTPUT CONTROL FOR STRESS PERIOD    3   TIME STEP    4
 
 SOLVING FOR HEAD 
                                                   Max.-Head-Change                         Max.-Flux-Residual
  Residual-Control   Outer-Iter.   Inner-Iter.     Column Row Layer    Maximum-Head-Change  Column Row Layer    Maximum-Flux-Residual          L2-NORM 
          0                 1           2             2    2     1       0.4764248236E-02       2   13    1         0.2561081952E+00      0.6464234646E+00
          0                 2           2             2    2     1      -0.4634323554E-03       2    2    1        -0.2488671866E-01      0.6366999779E-01
          0                 3           1             2    2     1       0.3155801689E-04       2    2    1         0.1742070505E-02      0.4366222635E-02

    ------------------------------------------------
       NWT REQUIRED            3 OUTER ITERATIONS 
       AND A TOTAL OF          5 INNER ITERATIONS.
    ------------------------------------------------

 NO OUTPUT CONTROL FOR STRESS PERIOD    3   TIME STEP    5
 
 SOLVING FOR HEAD 
                                                   Max.-Head-Change                         Max.-Flux-Residual
  Residual-Control   Outer-Iter.   Inner-Iter.     Column Row Layer    Maximum-Head-Change  Column Row Layer    Maximum-Flux-Residual          L2-NORM 
          0                 1           2             2    2     1       0.4732201090E-02       2    2    1         0.2471810677E+00      0.6202315041E+00
          0                 2           2             2    2     1      -0.4603150240E-03       2    2    1        -0.2471816644E-01      0.6115451744E-01
          0                 3           1             2    2     1       0.3134573801E-04       2    2    1         0.1730271840E-02      0.4199830375E-02

    ------------------------------------------------
       NWT REQUIRED            3 OUTER ITERATIONS 
       AND A TOTAL OF          5 INNER ITERATIONS.
    ------------------------------------------------

 NO OUTPUT CONTROL FOR STRESS PERIOD    3   TIME STEP    6
 
 SOLVING FOR HEAD 
                                                   Max.-Head-Change                         Max.-Flux-Residual
  Residual-Control   Outer-Iter.   Inner-Iter.     Column Row Layer    Maximum-Head-Change  Column Row Layer    Maximum-Flux-Residual          L2-NORM 
          0                 1           2             2    2     1       0.4700607100E-02       2    2    1         0.2455194587E+00      0.5968157567E+00
          0                 2           2             2    2     1      -0.4572417737E-03       2    2    1        -0.2455200444E-01      0.5890944021E-01
          0                 3           1             2    2     1       0.3113646109E-04       2    2    1         0.1718640493E-02      0.4051915775E-02

    ------------------------------------------------
       NWT REQUIRED            3 OUTER ITERATIONS 
       AND A TOTAL OF          5 INNER ITERATIONS.
    ------------------------------------------------

 NO OUTPUT CONTROL FOR STRESS PERIOD    3   TIME STEP    7
 
 SOLVING FOR HEAD 
                                                   Max.-Head-Change                         Max.-Flux-Residual
  Residual-Control   Outer-Iter.   Inner-Iter.     Column Row Layer    Maximum-Head-Change  Column Row Layer    Maximum-Flux-Residual          L2-NORM 
          0                 1           2             2    2     1       0.4669459330E-02       2    2    1         0.2438813453E+00      0.5758716148E+00
          0                 2           2             2    2     1      -0.4542119284E-03       2    2    1        -0.2438819200E-01      0.5689783947E-01
          0                 3           1             2    2     1       0.3093014022E-04       2    2    1         0.1707173636E-02      0.3919374583E-02

    ------------------------------------------------
       NWT REQUIRED            3 OUTER ITERATIONS 
       AND A TOTAL OF          5 INNER ITERATIONS.
    ------------------------------------------------

 NO OUTPUT CONTROL FOR STRESS PERIOD    3   TIME STEP    8
 
 SOLVING FOR HEAD 
                                                   Max.-Head-Change                         Max.-Flux-Residual
  Residual-Control   Outer-Iter.   Inner-Iter.     Column Row Layer    Maximum-Head-Change  Column Row Layer    Maximum-Flux-Residual          L2-NORM 
          0                 1           2             2    2     1       0.4638750574E-02       2    2    1         0.2422663680E+00      0.5571328478E+00
          0                 2           2             2    2     1      -0.4512247875E-03       2    2    1        -0.2422669320E-01      0.5510162395E-01
          0                 3           1             2    2     1       0.3072672640E-04       2    2    1         0.1695868711E-02      0.3801093543E-02

    ------------------------------------------------
       NWT REQUIRED            3 OUTER ITERATIONS 
       AND A TOTAL OF          5 INNER ITERATIONS.
    ------------------------------------------------

 NO OUTPUT CONTROL FOR STRESS PERIOD    3   TIME STEP    9
 
 SOLVING FOR HEAD 
                                                   Max.-Head-Change                         Max.-Flux-Residual
  Residual-Control   Outer-Iter.   Inner-Iter.     Column Row Layer    Maximum-Head-Change  Column Row Layer    Maximum-Flux-Residual          L2-NORM 
          0                 1           2             2    2     1       0.4608474110E-02       2    2    1         0.2406741530E+00      0.5403539997E+00
          0                 2           2             2    2     1      -0.4482796976E-03       2    2    1        -0.2406747069E-01      0.5349367576E-01
          0                 3           1             2    2     1       0.3052617728E-04       2    2    1         0.1684723136E-02      0.3695130248E-02

    ------------------------------------------------
       NWT REQUIRED            3 OUTER ITERATIONS 
       AND A TOTAL OF          5 INNER ITERATIONS.
    ------------------------------------------------

 NO OUTPUT CONTROL FOR STRESS PERIOD    3   TIME STEP   10
 
 SOLVING FOR HEAD 
                                                   Max.-Head-Change                         Max.-Flux-Residual
  Residual-Control   Outer-Iter.   Inner-Iter.     Column Row Layer    Maximum-Head-Change  Column Row Layer    Maximum-Flux-Residual          L2-NORM 
          0                 1           2             2    2     1       0.4578536215E-02       2    2    1         0.2390998165E+00      0.5253120928E+00
          0                 2           2             2    2     1      -0.4453675420E-03       2    2    1        -0.2391003603E-01      0.5205007738E-01
          0                 3           1             2    2     1       0.3032787040E-04       2    2    1         0.1673702728E-02      0.3599354641E-02

    ------------------------------------------------
       NWT REQUIRED            3 OUTER ITERATIONS 
       AND A TOTAL OF          5 INNER ITERATIONS.
    ------------------------------------------------

 NO OUTPUT CONTROL FOR STRESS PERIOD    3   TIME STEP   11
 
 SOLVING FOR HEAD 
                                                   Max.-Head-Change                         Max.-Flux-Residual
  Residual-Control   Outer-Iter.   Inner-Iter.     Column Row Layer    Maximum-Head-Change  Column Row Layer    Maximum-Flux-Residual          L2-NORM 
          0                 1           2             2    2     1       0.4549017488E-02       2    2    1         0.2375475697E+00      0.5118075127E+00
          0                 2           2             2    2     1      -0.4424961597E-03       2    2    1        -0.2375481035E-01      0.5075409265E-01
          0                 3           1             2    2     1       0.3013233994E-04       2    2    1         0.1662836943E-02      0.3513223928E-02

    ------------------------------------------------
       NWT REQUIRED            3 OUTER ITERATIONS 
       AND A TOTAL OF          5 INNER ITERATIONS.
    ------------------------------------------------

 NO OUTPUT CONTROL FOR STRESS PERIOD    3   TIME STEP   12
 
 SOLVING FOR HEAD 
                                                   Max.-Head-Change                         Max.-Flux-Residual
  Residual-Control   Outer-Iter.   Inner-Iter.     Column Row Layer    Maximum-Head-Change  Column Row Layer    Maximum-Flux-Residual          L2-NORM 
          0                 1           2             2    2     1       0.4519911600E-02       2    2    1         0.2360170563E+00      0.4996668411E+00
          0                 2           2             2    2     1      -0.4396649360E-03       2    2    1        -0.2360175806E-01      0.4958896320E-01
          0                 3           1             2    2     1       0.2993954447E-04       2    2    1         0.1652123290E-02      0.3436751239E-02

    ------------------------------------------------
       NWT REQUIRED            3 OUTER ITERATIONS 
       AND A TOTAL OF          5 INNER ITERATIONS.
    ------------------------------------------------

 NO OUTPUT CONTROL FOR STRESS PERIOD    3   TIME STEP   13
 
 SOLVING FOR HEAD 
                                                   Max.-Head-Change                         Max.-Flux-Residual
  Residual-Control   Outer-Iter.   Inner-Iter.     Column Row Layer    Maximum-Head-Change  Column Row Layer    Maximum-Flux-Residual          L2-NORM 
          0                 1           2             2    2     1       0.4491211897E-02       2    2    1         0.2345079483E+00      0.4887379538E+00
          0                 2           2             2    2     1      -0.4368732230E-03       2    2    1        -0.2345084631E-01      0.4853926222E-01
          0                 3           1             2    2     1       0.2974943927E-04       2    2    1         0.1641559451E-02      0.3366787428E-02

    ------------------------------------------------
       NWT REQUIRED            3 OUTER ITERATIONS 
       AND A TOTAL OF          5 INNER ITERATIONS.
    ------------------------------------------------

 NO OUTPUT CONTROL FOR STRESS PERIOD    3   TIME STEP   14
 
 SOLVING FOR HEAD 
                                                   Max.-Head-Change                         Max.-Flux-Residual
  Residual-Control   Outer-Iter.   Inner-Iter.     Column Row Layer    Maximum-Head-Change  Column Row Layer    Maximum-Flux-Residual          L2-NORM 
          0                 1           2             2    2     1       0.4462825499E-02       2    2    1         0.2330153643E+00      0.4788722806E+00
          0                 2           2             2    2     1      -0.4341119867E-03       2    2    1        -0.2330158701E-01      0.4759151430E-01
          0                 3           1             2    2     1       0.2956140922E-04       2    2    1         0.1631111312E-02      0.3304033094E-02

    ------------------------------------------------
       NWT REQUIRED            3 OUTER ITERATIONS 
       AND A TOTAL OF          5 INNER ITERATIONS.
    ------------------------------------------------

 NO OUTPUT CONTROL FOR STRESS PERIOD    3   TIME STEP   15
 
 SOLVING FOR HEAD 
                                                   Max.-Head-Change                         Max.-Flux-Residual
  Residual-Control   Outer-Iter.   Inner-Iter.     Column Row Layer    Maximum-Head-Change  Column Row Layer    Maximum-Flux-Residual          L2-NORM 
          0                 1           2             2    2     1       0.4434833424E-02       2    2    1         0.2315435608E+00      0.4699388097E+00
          0                 2           2             2    2     1      -0.4313891078E-03       2    2    1        -0.2315440577E-01      0.4673202448E-01
          0                 3           1             2    2     1       0.2937599133E-04       2    2    1         0.1620808620E-02      0.3247035242E-02

    ------------------------------------------------
       NWT REQUIRED            3 OUTER ITERATIONS 
       AND A TOTAL OF          5 INNER ITERATIONS.
    ------------------------------------------------

 NO OUTPUT CONTROL FOR STRESS PERIOD    3   TIME STEP   16
 
 SOLVING FOR HEAD 
                                                   Max.-Head-Change                         Max.-Flux-Residual
  Residual-Control   Outer-Iter.   Inner-Iter.     Column Row Layer    Maximum-Head-Change  Column Row Layer    Maximum-Flux-Residual          L2-NORM 
          0                 1           2             2    2     1       0.4407229753E-02       2    2    1         0.2300922026E+00      0.4618383430E+00
          0                 2           2             2    2     1      -0.4287040100E-03       2    2    1        -0.2300926905E-01      0.4595286382E-01
          0                 3           1             2    2     1       0.2919314679E-04       2    2    1         0.1610649084E-02      0.3195395498E-02

    ------------------------------------------------
       NWT REQUIRED            3 OUTER ITERATIONS 
       AND A TOTAL OF          5 INNER ITERATIONS.
    ------------------------------------------------

 NO OUTPUT CONTROL FOR STRESS PERIOD    3   TIME STEP   17
 
 SOLVING FOR HEAD 
                                                   Max.-Head-Change                         Max.-Flux-Residual
  Residual-Control   Outer-Iter.   Inner-Iter.     Column Row Layer    Maximum-Head-Change  Column Row Layer    Maximum-Flux-Residual          L2-NORM 
          0                 1           2             2    2     1       0.4379997722E-02       2    2    1         0.2286604514E+00      0.4544619460E+00
          0                 2           2             2    2     1      -0.4260550629E-03       2    2    1        -0.2286609308E-01      0.4524096885E-01
          0                 3           1             2    2     1       0.2901276295E-04       2    2    1         0.1600626752E-02      0.3147790500E-02

    ------------------------------------------------
       NWT REQUIRED            3 OUTER ITERATIONS 
       AND A TOTAL OF          5 INNER ITERATIONS.
    ------------------------------------------------

 NO OUTPUT CONTROL FOR STRESS PERIOD    3   TIME STEP   18
 
 SOLVING FOR HEAD 
                                                   Max.-Head-Change                         Max.-Flux-Residual
  Residual-Control   Outer-Iter.   Inner-Iter.     Column Row Layer    Maximum-Head-Change  Column Row Layer    Maximum-Flux-Residual          L2-NORM 
          0                 1           2             2    2     1       0.4353152023E-02       2    2    1         0.2272490320E+00      0.4477426694E+00
          0                 2           2             2    2     1      -0.4234436961E-03       2    2    1        -0.2272495032E-01      0.4459279341E-01
          0                 3           1             2    2     1       0.2883493896E-04       2    2    1         0.1590746757E-02      0.3104969159E-02

    ------------------------------------------------
       NWT REQUIRED            3 OUTER ITERATIONS 
       AND A TOTAL OF          5 INNER ITERATIONS.
    ------------------------------------------------

 NO OUTPUT CONTROL FOR STRESS PERIOD    3   TIME STEP   19
 
 SOLVING FOR HEAD 
                                                   Max.-Head-Change                         Max.-Flux-Residual
  Residual-Control   Outer-Iter.   Inner-Iter.     Column Row Layer    Maximum-Head-Change  Column Row Layer    Maximum-Flux-Residual          L2-NORM 
          0                 1           2             2    2     1       0.4326589986E-02       2    2    1         0.2258525753E+00      0.4415888457E+00
          0                 2           2             2    2     1      -0.4208599218E-03       2    2    1        -0.2258530383E-01      0.4399885768E-01
          0                 3           1             2    2     1       0.2865899392E-04       2    2    1         0.1580971518E-02      0.3065184328E-02

    ------------------------------------------------
       NWT REQUIRED            3 OUTER ITERATIONS 
       AND A TOTAL OF          5 INNER ITERATIONS.
    ------------------------------------------------

 NO OUTPUT CONTROL FOR STRESS PERIOD    3   TIME STEP   20
 
 SOLVING FOR HEAD 
                                                   Max.-Head-Change                         Max.-Flux-Residual
  Residual-Control   Outer-Iter.   Inner-Iter.     Column Row Layer    Maximum-Head-Change  Column Row Layer    Maximum-Flux-Residual          L2-NORM 
          0                 1           2             2    2     1       0.4300479606E-02       2    2    1         0.2244798999E+00      0.4359396426E+00
          0                 2           2             2    2     1      -0.4183200817E-03       2    2    1        -0.2244803548E-01      0.4345143581E-01
          0                 3           1             2    2     1       0.2848604019E-04       2    2    1         0.1571362738E-02      0.3028214582E-02

    ------------------------------------------------
       NWT REQUIRED            3 OUTER ITERATIONS 
       AND A TOTAL OF          5 INNER ITERATIONS.
    ------------------------------------------------

 NO OUTPUT CONTROL FOR STRESS PERIOD    3   TIME STEP   21
 
 SOLVING FOR HEAD 
                                                   Max.-Head-Change                         Max.-Flux-Residual
  Residual-Control   Outer-Iter.   Inner-Iter.     Column Row Layer    Maximum-Head-Change  Column Row Layer    Maximum-Flux-Residual          L2-NORM 
          0                 1           2             2    2     1       0.4274641177E-02       2    2    1         0.2231215685E+00      0.4307385162E+00
          0                 2           2             2    2     1      -0.4158066950E-03       2    2    1        -0.2231220156E-01      0.4294783447E-01
          0                 3           1             2    2     1       0.2831488778E-04       2    2    1         0.1561854342E-02      0.2996596712E-02

    ------------------------------------------------
       NWT REQUIRED            3 OUTER ITERATIONS 
       AND A TOTAL OF          5 INNER ITERATIONS.
    ------------------------------------------------

 NO OUTPUT CONTROL FOR STRESS PERIOD    3   TIME STEP   22
 
 SOLVING FOR HEAD 
                                                   Max.-Head-Change                         Max.-Flux-Residual
  Residual-Control   Outer-Iter.   Inner-Iter.     Column Row Layer    Maximum-Head-Change  Column Row Layer    Maximum-Flux-Residual          L2-NORM 
          0                 1           2             2    2     1       0.4249070062E-02       2    2    1         0.2217773371E+00      0.4259341507E+00
          0                 2           2             2    2     1      -0.4133193116E-03       2    2    1        -0.2217777767E-01      0.4248091076E-01
          0                 3           1             2    2     1       0.2814550617E-04       2    2    1         0.1552444676E-02      0.2963286338E-02

    ------------------------------------------------
       NWT REQUIRED            3 OUTER ITERATIONS 
       AND A TOTAL OF          5 INNER ITERATIONS.
    ------------------------------------------------

 NO OUTPUT CONTROL FOR STRESS PERIOD    3   TIME STEP   23
 
 SOLVING FOR HEAD 
                                                   Max.-Head-Change                         Max.-Flux-Residual
  Residual-Control   Outer-Iter.   Inner-Iter.     Column Row Layer    Maximum-Head-Change  Column Row Layer    Maximum-Flux-Residual          L2-NORM 
          0                 1           2             2    2     1       0.4223934909E-02       2    2    1         0.2204560402E+00      0.4214807155E+00
          0                 2           2             2    2     1      -0.4108743353E-03       2    2    1        -0.2204564723E-01      0.4204772967E-01
          0                 3           1             2    2     1       0.2797901267E-04       2    2    1         0.1543195559E-02      0.2934028696E-02

    ------------------------------------------------
       NWT REQUIRED            3 OUTER ITERATIONS 
       AND A TOTAL OF          5 INNER ITERATIONS.
    ------------------------------------------------

 NO OUTPUT CONTROL FOR STRESS PERIOD    3   TIME STEP   24
 
 SOLVING FOR HEAD 
                                                   Max.-Head-Change                         Max.-Flux-Residual
  Residual-Control   Outer-Iter.   Inner-Iter.     Column Row Layer    Maximum-Head-Change  Column Row Layer    Maximum-Flux-Residual          L2-NORM 
          0                 1           2             2    2     1       0.4199142690E-02       2    2    1         0.2191528102E+00      0.4173409117E+00
          0                 2           2             2    2     1      -0.4084627175E-03       2    2    1        -0.2191532351E-01      0.4164523473E-01
          0                 3           1             2    2     1       0.2781479030E-04       2    2    1         0.1534072893E-02      0.2906864496E-02

    ------------------------------------------------
       NWT REQUIRED            3 OUTER ITERATIONS 
       AND A TOTAL OF          5 INNER ITERATIONS.
    ------------------------------------------------

 NO OUTPUT CONTROL FOR STRESS PERIOD    3   TIME STEP   25
 
 SOLVING FOR HEAD 
                                                   Max.-Head-Change                         Max.-Flux-Residual
  Residual-Control   Outer-Iter.   Inner-Iter.     Column Row Layer    Maximum-Head-Change  Column Row Layer    Maximum-Flux-Residual          L2-NORM 
          0                 1           2             2    2     1       0.4174601143E-02       2    2    1         0.2178628233E+00      0.4134791521E+00
          0                 2           2             2    2     1      -0.4060754836E-03       2    2    1        -0.2178632411E-01      0.4126920458E-01
          0                 3           1             2    2     1       0.2765222866E-04       2    2    1         0.1525042957E-02      0.2881717572E-02

    ------------------------------------------------
       NWT REQUIRED            3 OUTER ITERATIONS 
       AND A TOTAL OF          5 INNER ITERATIONS.
    ------------------------------------------------

 NO OUTPUT CONTROL FOR STRESS PERIOD    3   TIME STEP   26
 
 SOLVING FOR HEAD 
                                                   Max.-Head-Change                         Max.-Flux-Residual
  Residual-Control   Outer-Iter.   Inner-Iter.     Column Row Layer    Maximum-Head-Change  Column Row Layer    Maximum-Flux-Residual          L2-NORM 
          0                 1           2             2    2     1       0.4150392441E-02       2    2    1         0.2165903710E+00      0.4098644831E+00
          0                 2           2             2    2     1      -0.4037206265E-03       2    2    1        -0.2165907819E-01      0.4092614592E-01
          0                 3           1             2    2     1       0.2749187186E-04       2    2    1         0.1516135738E-02      0.2858544735E-02

    ------------------------------------------------
       NWT REQUIRED            3 OUTER ITERATIONS 
       AND A TOTAL OF          5 INNER ITERATIONS.
    ------------------------------------------------

 NO OUTPUT CONTROL FOR STRESS PERIOD    3   TIME STEP   27
 
 SOLVING FOR HEAD 
                                                   Max.-Head-Change                         Max.-Flux-Residual
  Residual-Control   Outer-Iter.   Inner-Iter.     Column Row Layer    Maximum-Head-Change  Column Row Layer    Maximum-Flux-Residual          L2-NORM 
          0                 1           2             2    2     1       0.4126511696E-02       2    2    1         0.2153351764E+00      0.4064678820E+00
          0                 2           2             2    2     1      -0.4013976710E-03       2    2    1        -0.2153355805E-01      0.4058383225E-01
          0                 3           1             2    2     1       0.2733368750E-04       2    2    1         0.1507349338E-02      0.2835326525E-02

    ------------------------------------------------
       NWT REQUIRED            3 OUTER ITERATIONS 
       AND A TOTAL OF          5 INNER ITERATIONS.
    ------------------------------------------------

 NO OUTPUT CONTROL FOR STRESS PERIOD    3   TIME STEP   28
 
 SOLVING FOR HEAD 
                                                   Max.-Head-Change                         Max.-Flux-Residual
  Residual-Control   Outer-Iter.   Inner-Iter.     Column Row Layer    Maximum-Head-Change  Column Row Layer    Maximum-Flux-Residual          L2-NORM 
          0                 1           2             2    2     1       0.4102953735E-02       2    2    1         0.2140969860E+00      0.4032580417E+00
          0                 2           2             2    2     1      -0.3991061138E-03       2    2    1        -0.2140973835E-01      0.4026959030E-01
          0                 3           1             2    2     1       0.2717764100E-04       2    2    1         0.1498681948E-02      0.2813759530E-02

    ------------------------------------------------
       NWT REQUIRED            3 OUTER ITERATIONS 
       AND A TOTAL OF          5 INNER ITERATIONS.
    ------------------------------------------------

 NO OUTPUT CONTROL FOR STRESS PERIOD    3   TIME STEP   29
 
 SOLVING FOR HEAD 
                                                   Max.-Head-Change                         Max.-Flux-Residual
  Residual-Control   Outer-Iter.   Inner-Iter.     Column Row Layer    Maximum-Head-Change  Column Row Layer    Maximum-Flux-Residual          L2-NORM 
          0                 1           2             4   13     1       0.9279380829E-02       4   13    1         0.5331635596E+00      0.1129361597E+01
          0                 2           2             4   13     1      -0.8928533916E-03       4   13    1        -0.5274556194E-01      0.1105070929E+00
          0                 3           1             4   13     1       0.5989141537E-04       4   13    1         0.3637649555E-02      0.7509014219E-02

    ------------------------------------------------
       NWT REQUIRED            3 OUTER ITERATIONS 
       AND A TOTAL OF          5 INNER ITERATIONS.
    ------------------------------------------------

 NO OUTPUT CONTROL FOR STRESS PERIOD    3   TIME STEP   30



 STREAM LISTING     PERIOD      3   STEP       30

 LAYER ROW COL. STREAM  RCH.  FLOW INTO     FLOW TO   FLOW OUT OF   OVRLND.     DIRECT     STREAM       STREAM     STREAM     STREAM   STREAMBED  STREAMBED
                SEG.NO.  NO.  STRM. RCH.    AQUIFER    STRM. RCH.    RUNOFF     PRECIP       ET          HEAD       DEPTH      WIDTH   CONDCTNC.   GRADIENT

   1    1    1     1     1    5.4376E+01  3.5202E-01   5.4024E+01  0.000E+00  0.000E+00  0.000E+00  1.09450E+03  1.455E+00  1.756E+01  7.901E-02  1.485E+00
   1    2    2     1     2    5.4024E+01  5.4505E-01   5.3479E+01  0.000E+00  0.000E+00  0.000E+00  1.08951E+03  1.449E+00  1.750E+01  1.225E-01  1.483E+00
   1    3    3     1     3    5.3479E+01  4.6474E-01   5.3014E+01  0.000E+00  0.000E+00  0.000E+00  1.08386E+03  1.443E+00  1.743E+01  1.046E-01  1.481E+00
   1    3    4     1     4    5.3014E+01  4.2788E-01   5.2587E+01  0.000E+00  0.000E+00  0.000E+00  1.07884E+03  1.437E+00  1.738E+01  9.643E-02  1.479E+00
   1    4    5     2     1    5.0587E+01  3.7745E-01   5.0209E+01  0.000E+00  0.000E+00  0.000E+00  1.07377E+03  1.839E+00  1.200E+01  7.800E-02  1.613E+00
   1    5    6     2     2    5.0209E+01  2.8990E-01   4.9919E+01  0.000E+00  0.000E+00  0.000E+00  1.06834E+03  1.832E+00  1.200E+01  6.000E-02  1.611E+00
   1    6    6     2     3    4.9919E+01  2.8952E-01   4.9630E+01  0.000E+00  0.000E+00  0.000E+00  1.06362E+03  1.825E+00  1.200E+01  6.000E-02  1.608E+00
   1    7    6     2     4    4.9630E+01  2.8914E-01   4.9341E+01  0.000E+00  0.000E+00  0.000E+00  1.05889E+03  1.819E+00  1.200E+01  6.000E-02  1.606E+00
   1    8    6     2     5    4.9341E+01  2.8876E-01   4.9052E+01  0.000E+00  0.000E+00  0.000E+00  1.05417E+03  1.813E+00  1.200E+01  6.000E-02  1.604E+00
   1    3    5     3     1    2.0000E+00  2.8252E-01   1.7175E+00  0.000E+00  0.000E+00  0.000E+00  1.07555E+03  1.909E+00  9.636E+00  7.227E-02  1.955E+00
   1    3    6     3     2    1.7175E+00  2.4905E-01   1.4684E+00  0.000E+00  0.000E+00  0.000E+00  1.07264E+03  1.727E+00  8.909E+00  6.682E-02  1.864E+00
   1    3    7     3     3    1.4684E+00  1.9718E-01   1.2712E+00  0.000E+00  0.000E+00  0.000E+00  1.06987E+03  1.555E+00  8.218E+00  5.547E-02  1.777E+00
   1    4    8     3     4    1.2712E+00  2.2567E-01   1.0456E+00  0.000E+00  0.000E+00  0.000E+00  1.06682E+03  1.364E+00  7.455E+00  6.709E-02  1.682E+00
   1    5    8     3     5    1.0456E+00  1.5790E-01   8.8768E-01  0.000E+00  0.000E+00  0.000E+00  1.06362E+03  1.164E+00  6.655E+00  4.991E-02  1.582E+00
   1    6    8     3     6    8.8768E-01  5.5980E-02   8.3170E-01  0.000E+00  0.000E+00  0.000E+00  1.06158E+03  1.036E+00  6.145E+00  1.844E-02  1.518E+00
   1    5   10     4     1    1.0000E+01  9.0919E-02   9.9091E+00  0.000E+00  0.000E+00  0.000E+00  1.07836E+03  6.368E-01  1.000E+01  2.500E-02  1.212E+00
   1    5    9     4     2    9.9091E+00  1.8158E-01   9.7275E+00  0.000E+00  0.000E+00  0.000E+00  1.07154E+03  6.315E-01  1.000E+01  5.000E-02  1.211E+00
   1    6    8     4     3    9.7275E+00  1.2689E-01   9.6006E+00  0.000E+00  0.000E+00  0.000E+00  1.06381E+03  6.256E-01  1.000E+01  3.500E-02  1.209E+00
   1    6    8     5     1    1.0432E+01  2.2686E-01   1.0205E+01  0.000E+00  0.000E+00  0.000E+00  1.05868E+03  6.790E-01  1.542E+01  6.166E-02  1.226E+00
   1    7    7     5     2    1.0205E+01  2.7894E-01   9.9265E+00  0.000E+00  0.000E+00  0.000E+00  1.05417E+03  6.732E-01  1.519E+01  7.594E-02  1.224E+00
   1    8    7     5     3    9.9265E+00  1.9221E-01   9.7343E+00  0.000E+00  0.000E+00  0.000E+00  1.04992E+03  6.676E-01  1.497E+01  5.241E-02  1.223E+00
   1    8    6     5     4    9.7343E+00  1.3577E-01   9.5985E+00  0.000E+00  0.000E+00  0.000E+00  1.04691E+03  6.637E-01  1.482E+01  3.706E-02  1.221E+00
   1    9    6     6     1    5.8650E+01  3.0201E-01   5.8348E+01  0.000E+00  0.000E+00  0.000E+00  1.04476E+03  2.034E+00  1.200E+01  6.000E-02  1.678E+00
   1   10    7     6     2    5.8348E+01  3.0164E-01   5.8047E+01  0.000E+00  0.000E+00  0.000E+00  1.04021E+03  2.027E+00  1.200E+01  6.000E-02  1.676E+00
   1   11    7     6     3    5.8047E+01  3.0126E-01   5.7745E+01  0.000E+00  0.000E+00  0.000E+00  1.03566E+03  2.021E+00  1.200E+01  6.000E-02  1.674E+00
   1   12    7     6     4    5.7745E+01  3.0088E-01   5.7445E+01  0.000E+00  0.000E+00  0.000E+00  1.03111E+03  2.015E+00  1.200E+01  6.000E-02  1.672E+00
   1   13    7     6     5    5.7445E+01  1.9557E-02   5.7425E+01  0.000E+00  0.000E+00  0.000E+00  1.02792E+03  2.011E+00  1.200E+01  2.400E-02  2.716E-01
   1   14    9     7     1    1.5000E+02  1.3350E+00   1.4866E+02  0.000E+00  0.000E+00  0.000E+00  1.03987E+03  2.288E+00  5.529E+01  5.593E-01  7.957E-01
   1   13    8     7     2    1.4866E+02  1.8309E+00   1.4683E+02  0.000E+00  0.000E+00  0.000E+00  1.03478E+03  2.279E+00  5.526E+01  6.148E-01  9.927E-01
   1   13    7     7     3    1.4683E+02  1.4433E+00   1.4539E+02  0.000E+00  0.000E+00  0.000E+00  1.02969E+03  2.271E+00  5.522E+01  5.585E-01  8.615E-01
   1   13    6     8     1    2.0282E+02  1.0334E+00   2.0178E+02  0.000E+00  0.000E+00  0.000E+00  1.02503E+03  3.151E+00  4.569E+01  4.656E-01  7.398E-01
   1   13    5     8     2    2.0178E+02  2.2869E-01   2.0155E+02  0.000E+00  0.000E+00  0.000E+00  1.01877E+03  3.148E+00  4.564E+01  4.651E-01  1.639E-01
   1   13    4     8     3    2.0155E+02 -2.0703E+00   2.0362E+02  0.000E+00  0.000E+00  0.000E+00  1.01253E+03  3.153E+00  4.572E+01  4.659E+00 -1.481E-01
   1   13    3     8     4    2.0362E+02 -3.2634E+00   2.0689E+02  0.000E+00  0.000E+00  0.000E+00  1.00629E+03  3.168E+00  4.594E+01  4.682E+00 -2.324E-01
   1   13    2     8     5    2.0689E+02 -2.0910E+00   2.0898E+02  0.000E+00  0.000E+00  0.000E+00  1.00006E+03  3.184E+00  4.617E+01  4.704E+00 -1.482E-01
   1   13    1     8     6    2.0898E+02 -1.6691E+00   2.1065E+02  0.000E+00  0.000E+00  0.000E+00  9.95070E+02  3.195E+00  4.632E+01  2.832E+00 -1.964E-01
   1    8    6     9     1    0.0000E+00  0.0000E+00   0.0000E+00  0.000E+00  0.000E+00  0.000E+00  1.07875E+03  0.000E+00  4.000E+00  0.000E+00  1.000E+00
   1    8    5     9     2    0.0000E+00  0.0000E+00   0.0000E+00  0.000E+00  0.000E+00  0.000E+00  1.07825E+03  0.000E+00  4.000E+00  0.000E+00  1.000E+00





UNSATURATED ZONE PACKAGE VOLUMETRIC BUDGET FOR  TIME STEP    30 STRESS PERIOD    3
  ------------------------------------------------------------------------------



     CUMULATIVE VOLUMES      L**3       RATES FOR THIS TIME STEP      L**3/T
     ------------------                 ------------------------

           IN:                                      IN:
           ---                                      ---
        INFILTRATION =    23256673.1162          INFILTRATION =           4.4075

          OUT:                                     OUT:
          ----                                     ----
              UZF ET =     3813499.7781                UZF ET =           0.7250
        UZF RECHARGE =       73224.0000          UZF RECHARGE =       0.0000E+00

            IN - OUT =    19369949.3381              IN - OUT =           3.6825

          STORAGE:                                 STORAGE:
          --------                                 --------
      STORAGE CHANGE =    19369949.2170        STORAGE CHANGE =           3.6825

 PERCENT DISCREPANCY IS DIFFERENCE BETWEEN IN-OUT MINUS CHANGE IN STORAGE
 DIVIDED BY THE AVERAGE OF IN AND OUT TIMES 100

 PERCENT DISCREPANCY =           0.00     PERCENT DISCREPANCY =           0.00






1
  VOLUMETRIC BUDGET FOR AGRICULTURAL FIELDS AT  END OF TIME STEP   30, STRESS PERIOD   3
  ------------------------------------------------------------------------------

     CUMULATIVE VOLUMES      L**3       RATES FOR THIS TIME STEP      L**3/T
     ------------------                 ------------------------

           IN:                                      IN:
           ---                                      ---
               AG WELLS  =           0.0000                 AG WELLS  =           0.0000
      DIVERSION SEGMENTS =           0.0000        DIVERSION SEGMENTS =           0.0000
           GW IRRIGATION =           0.0000             GW IRRIGATION =           0.0000
           SW IRRIGATION =           0.0000             SW IRRIGATION =           0.0000
        SYSTEM LOSSES GW =           0.0000          SYSTEM LOSSES GW =           0.0000
        SYSTEM LOSSES SW =           0.0000          SYSTEM LOSSES SW =           0.0000

                TOTAL IN =           0.0000                  TOTAL IN =           0.0000

          OUT:                                     OUT:
          ----                                     ----
               AG WELLS  =           0.0000                 AG WELLS  =           0.0000
      DIVERSION SEGMENTS =           0.0000        DIVERSION SEGMENTS =           0.0000
           GW IRRIGATION =           0.0000             GW IRRIGATION =           0.0000
           SW IRRIGATION =           0.0000             SW IRRIGATION =           0.0000
        SYSTEM LOSSES GW =           0.0000          SYSTEM LOSSES GW =           0.0000
        SYSTEM LOSSES SW =           0.0000          SYSTEM LOSSES SW =           0.0000

               TOTAL OUT =           0.0000                 TOTAL OUT =           0.0000

                IN - OUT =           0.0000                  IN - OUT =           0.0000

     PERCENT DISCREPANCY =           0.00         PERCENT DISCREPANCY =           0.00



1
  VOLUMETRIC BUDGET FOR ENTIRE MODEL AT END OF TIME STEP   30, STRESS PERIOD   3
  ------------------------------------------------------------------------------

     CUMULATIVE VOLUMES      L**3       RATES FOR THIS TIME STEP      L**3/T
     ------------------                 ------------------------

           IN:                                      IN:
           ---                                      ---
             STORAGE     =     3122516.5000               STORAGE     =           0.4872
       CONSTANT HEAD     =           0.0000         CONSTANT HEAD     =           0.0000
     HEAD DEP BOUNDS     =     1527280.1250       HEAD DEP BOUNDS     =           0.2857
      STREAM LEAKAGE     =    61979672.0000        STREAM LEAKAGE     =          12.8226
        UZF RECHARGE     =       73223.9531          UZF RECHARGE     =           0.0000
               GW ET     =           0.0000                 GW ET     =           0.0000
     SURFACE LEAKAGE     =           0.0000       SURFACE LEAKAGE     =           0.0000
           AG WELLS      =           0.0000             AG WELLS      =           0.0000

                TOTAL IN =    66702692.0000                  TOTAL IN =          13.5955

          OUT:                                     OUT:
          ----                                     ----
             STORAGE     =     9107252.0000               STORAGE     =           4.2117
       CONSTANT HEAD     =           0.0000         CONSTANT HEAD     =           0.0000
     HEAD DEP BOUNDS     =     1544993.7500       HEAD DEP BOUNDS     =           0.2910
      STREAM LEAKAGE     =    56052140.0000        STREAM LEAKAGE     =           9.0938
        UZF RECHARGE     =           0.0000          UZF RECHARGE     =           0.0000
               GW ET     =           0.0000                 GW ET     =           0.0000
     SURFACE LEAKAGE     =           0.0000       SURFACE LEAKAGE     =           0.0000
           AG WELLS      =           0.0000             AG WELLS      =           0.0000

               TOTAL OUT =    66704384.0000                 TOTAL OUT =          13.5965

                IN - OUT =       -1692.0000                  IN - OUT =      -1.0567E-03

     PERCENT DISCREPANCY =          -0.00         PERCENT DISCREPANCY =          -0.01






         TIME SUMMARY AT END OF TIME STEP   30 IN STRESS PERIOD    3
                    SECONDS     MINUTES      HOURS       DAYS        YEARS
                    -----------------------------------------------------------
   TIME STEP LENGTH  87667.      1461.1      24.352      1.0147     2.77799E-03
 STRESS PERIOD TIME 2.63000E+06  43833.      730.56      30.440     8.33397E-02
         TOTAL TIME 5.34640E+06  89107.      1485.1      61.880     0.16942    
1
1
                            STRESS PERIOD NO.    4, LENGTH =   2630000.    
                            -----------------------------------------------

                              NUMBER OF TIME STEPS =    30

                               MULTIPLIER FOR DELT =     1.000

                            INITIAL TIME STEP SIZE =   87666.66    

 REUSING NON-PARAMETER GHB CELLS FROM LAST STRESS PERIOD

      2 GHB CELLS

 REUSING STREAM SEGMENT DATA FROM LAST STRESS PERIOD



            AREAL INFILTRATION RATE
 READING ON UNIT   19 WITH FORMAT: (10F4.0)            

            1           2           3           4           5           6           7           8           9          10
 ........................................................................................................................
   1   1.2000E-09   0.000       0.000       0.000       0.000       0.000       0.000       0.000       0.000       0.000    
   2   2.1000E-09  2.0000E-09  8.0000E-10  8.5000E-09   0.000       0.000       0.000       0.000       0.000       0.000    
   3   5.0000E-10  1.1000E-09  8.8000E-09  5.5000E-09   0.000       0.000       0.000       0.000       0.000       0.000    
   4   8.5000E-09  1.1000E-09  1.1000E-09  1.1000E-09  2.0000E-09   0.000       0.000       0.000       0.000       0.000    
   5   8.5000E-09  1.1000E-09  1.1000E-09  1.1000E-09  1.1000E-09   0.000       0.000       0.000       0.000       0.000    
   6   8.5000E-09  5.2000E-09  2.1000E-09  1.1000E-09  1.5000E-09   0.000       0.000       0.000       0.000       0.000    
   7   8.5000E-09  5.2000E-09  2.1000E-09  1.2000E-09  2.0000E-09   0.000       0.000       0.000       0.000       0.000    
   8   5.0000E-10  5.2000E-09  2.1000E-09  1.2000E-09  5.0000E-09   0.000       0.000       0.000       0.000       0.000    
   9   5.0000E-10  5.2000E-09  2.1000E-09  1.2000E-09  5.0000E-09   0.000       0.000       0.000       0.000       0.000    
  10   5.0000E-10  5.2000E-09  2.1000E-09  1.2000E-09  5.8000E-09   0.000       0.000       0.000       0.000       0.000    
  11   1.0000E-10  1.1000E-09  1.1000E-09  1.2000E-09  5.0000E-09   0.000       0.000       0.000       0.000       0.000    
  12   1.1000E-09  1.1000E-09  1.1000E-09  1.1000E-09  2.0000E-09   0.000       0.000       0.000       0.000       0.000    
  13   1.1000E-09  2.2000E-09  2.2000E-09  2.1000E-09  1.0000E-09   0.000       0.000       0.000       0.000       0.000    
  14   2.0000E-10  5.5000E-09  5.5000E-09  5.2000E-09  1.0000E-09   0.000       0.000       0.000       0.000       0.000    
  15    0.000      8.8000E-09  8.8000E-09   0.000       0.000       0.000       0.000       0.000       0.000       0.000    

                  ET RATE =  5.000000E-10

 USING ET EXTINCTION DEPTH FROM PREVIOUS STRESS PERIOD. CURRENT PERIOD IS:       4

 USING EXTINCTION WATER CONTENT FROM PREVIOUS STRESS PERIOD. CURRENT PERIOD IS:       4

 USING AIR ENTRY PRESSURE FROM PREVIOUS STRESS PERIOD. CURRENT PERIOD IS:       4

 USING ROOT PRESSURE HEAD FROM PREVIOUS STRESS PERIOD. CURRENT PERIOD IS:       4

 USING ROOT ACTIVITY FROM PREVIOUS STRESS PERIOD. CURRENT PERIOD IS:       4

 PROCESSING AG STRESS PERIOD DATA

 READING AG STRESS PERIOD DATA

 READING IRRIGATION SEGMENT

 READING IRRIGATION WELL

 READING SUPPLEMENTAL WELL

 END PROCESSING AG STRESS PERIOD DATA OPTIONS
 
 SOLVING FOR HEAD 
                                                   Max.-Head-Change                         Max.-Flux-Residual
  Residual-Control   Outer-Iter.   Inner-Iter.     Column Row Layer    Maximum-Head-Change  Column Row Layer    Maximum-Flux-Residual          L2-NORM 
          0                 1           2             2   13     1       0.9722703966E-02       4   13    1         0.5574256892E+00      0.1192908810E+01
          0                 2           2             4   13     1      -0.9333092601E-03       4   13    1        -0.5514000867E-01      0.1166978774E+00
          0                 3           1             4   13     1       0.6260032450E-04       4   13    1         0.3802479158E-02      0.7928240575E-02

    ------------------------------------------------
       NWT REQUIRED            3 OUTER ITERATIONS 
       AND A TOTAL OF          5 INNER ITERATIONS.
    ------------------------------------------------

 NO OUTPUT CONTROL FOR STRESS PERIOD    4   TIME STEP    1
 
 SOLVING FOR HEAD 
                                                   Max.-Head-Change                         Max.-Flux-Residual
  Residual-Control   Outer-Iter.   Inner-Iter.     Column Row Layer    Maximum-Head-Change  Column Row Layer    Maximum-Flux-Residual          L2-NORM 
          0                 1           2             2   13     1       0.8971080014E-02       2   13    1         0.5067247173E+00      0.1125587045E+01
          0                 2           2             4   13     1      -0.8448096227E-03       4   13    1        -0.4987499762E-01      0.1102308959E+00
          0                 3           1             4   13     1       0.5665842984E-04       4   13    1         0.3439000023E-02      0.7495928218E-02

    ------------------------------------------------
       NWT REQUIRED            3 OUTER ITERATIONS 
       AND A TOTAL OF          5 INNER ITERATIONS.
    ------------------------------------------------

 NO OUTPUT CONTROL FOR STRESS PERIOD    4   TIME STEP    2
 
 SOLVING FOR HEAD 
                                                   Max.-Head-Change                         Max.-Flux-Residual
  Residual-Control   Outer-Iter.   Inner-Iter.     Column Row Layer    Maximum-Head-Change  Column Row Layer    Maximum-Flux-Residual          L2-NORM 
          0                 1           2             2   13     1       0.8278370470E-02       2   13    1         0.4675373625E+00      0.1065456981E+01
          0                 2           2             2   13     1      -0.7684736145E-03       4   13    1        -0.4514497547E-01      0.1044575388E+00
          0                 3           1             4   13     1       0.5130127377E-04       4   13    1         0.3111442760E-02      0.7117430166E-02

    ------------------------------------------------
       NWT REQUIRED            3 OUTER ITERATIONS 
       AND A TOTAL OF          5 INNER ITERATIONS.
    ------------------------------------------------

 NO OUTPUT CONTROL FOR STRESS PERIOD    4   TIME STEP    3
 
 SOLVING FOR HEAD 
                                                   Max.-Head-Change                         Max.-Flux-Residual
  Residual-Control   Outer-Iter.   Inner-Iter.     Column Row Layer    Maximum-Head-Change  Column Row Layer    Maximum-Flux-Residual          L2-NORM 
          0                 1           2             2   13     1       0.7639776475E-02       2   13    1         0.4314133628E+00      0.1011783908E+01
          0                 2           2             2   13     1      -0.7094554415E-03       2   13    1        -0.4118055381E-01      0.9931036516E-01
          0                 3           1             4   13     1       0.4650833115E-04       4   13    1         0.2818457634E-02      0.6778179939E-02

    ------------------------------------------------
       NWT REQUIRED            3 OUTER ITERATIONS 
       AND A TOTAL OF          5 INNER ITERATIONS.
    ------------------------------------------------

 NO OUTPUT CONTROL FOR STRESS PERIOD    4   TIME STEP    4
 
 SOLVING FOR HEAD 
                                                   Max.-Head-Change                         Max.-Flux-Residual
  Residual-Control   Outer-Iter.   Inner-Iter.     Column Row Layer    Maximum-Head-Change  Column Row Layer    Maximum-Flux-Residual          L2-NORM 
          0                 1           2             2   13     1       0.7051301390E-02       2   13    1         0.3981264926E+00      0.9639314300E+00
          0                 2           2             2   13     1      -0.6550838614E-03       2   13    1        -0.3801895894E-01      0.9472652941E-01
          0                 3           1             2    2     1       0.4352505983E-04       4   13    1         0.2554582250E-02      0.6476841590E-02

    ------------------------------------------------
       NWT REQUIRED            3 OUTER ITERATIONS 
       AND A TOTAL OF          5 INNER ITERATIONS.
    ------------------------------------------------

 NO OUTPUT CONTROL FOR STRESS PERIOD    4   TIME STEP    5
 
 SOLVING FOR HEAD 
                                                   Max.-Head-Change                         Max.-Flux-Residual
  Residual-Control   Outer-Iter.   Inner-Iter.     Column Row Layer    Maximum-Head-Change  Column Row Layer    Maximum-Flux-Residual          L2-NORM 
          0                 1           2             2    2     1       0.6530579353E-02       2   13    1         0.3674428145E+00      0.9212707375E+00
          0                 2           2             2    2     1      -0.6352489020E-03       2   13    1        -0.3510025320E-01      0.9064142480E-01
          0                 3           1             2    2     1       0.4325807936E-04       2    2    1         0.2386429485E-02      0.6206888914E-02

    ------------------------------------------------
       NWT REQUIRED            3 OUTER ITERATIONS 
       AND A TOTAL OF          5 INNER ITERATIONS.
    ------------------------------------------------

 NO OUTPUT CONTROL FOR STRESS PERIOD    4   TIME STEP    6
 
 SOLVING FOR HEAD 
                                                   Max.-Head-Change                         Max.-Flux-Residual
  Residual-Control   Outer-Iter.   Inner-Iter.     Column Row Layer    Maximum-Head-Change  Column Row Layer    Maximum-Flux-Residual          L2-NORM 
          0                 1           2             2    2     1       0.6490745248E-02       2   13    1         0.3391672519E+00      0.8832705390E+00
          0                 2           2             2    2     1      -0.6313741016E-03       2    2    1        -0.3388241576E-01      0.8700492227E-01
          0                 3           1             2    2     1       0.4299422062E-04       2    2    1         0.2371769151E-02      0.5967956576E-02

    ------------------------------------------------
       NWT REQUIRED            3 OUTER ITERATIONS 
       AND A TOTAL OF          5 INNER ITERATIONS.
    ------------------------------------------------

 NO OUTPUT CONTROL FOR STRESS PERIOD    4   TIME STEP    7
 
 SOLVING FOR HEAD 
                                                   Max.-Head-Change                         Max.-Flux-Residual
  Residual-Control   Outer-Iter.   Inner-Iter.     Column Row Layer    Maximum-Head-Change  Column Row Layer    Maximum-Flux-Residual          L2-NORM 
          0                 1           2             2    2     1       0.6451548122E-02       2    2    1         0.3367622971E+00      0.8494206074E+00
          0                 2           2             2    2     1      -0.6275612630E-03       2    2    1        -0.3367633287E-01      0.8376771380E-01
          0                 3           1             2    2     1       0.4273458033E-04       2    2    1         0.2357343348E-02      0.5755486105E-02

    ------------------------------------------------
       NWT REQUIRED            3 OUTER ITERATIONS 
       AND A TOTAL OF          5 INNER ITERATIONS.
    ------------------------------------------------

 NO OUTPUT CONTROL FOR STRESS PERIOD    4   TIME STEP    8
 
 SOLVING FOR HEAD 
                                                   Max.-Head-Change                         Max.-Flux-Residual
  Residual-Control   Outer-Iter.   Inner-Iter.     Column Row Layer    Maximum-Head-Change  Column Row Layer    Maximum-Flux-Residual          L2-NORM 
          0                 1           2             2    2     1       0.6412804842E-02       2    2    1         0.3347254333E+00      0.8192800529E+00
          0                 2           2             2    2     1      -0.6237925715E-03       2    2    1        -0.3347264472E-01      0.8088726522E-01
          0                 3           1             2    2     1       0.4247794675E-04       2    2    1         0.2343085196E-02      0.5566206209E-02

    ------------------------------------------------
       NWT REQUIRED            3 OUTER ITERATIONS 
       AND A TOTAL OF          5 INNER ITERATIONS.
    ------------------------------------------------

 NO OUTPUT CONTROL FOR STRESS PERIOD    4   TIME STEP    9
 
 SOLVING FOR HEAD 
                                                   Max.-Head-Change                         Max.-Flux-Residual
  Residual-Control   Outer-Iter.   Inner-Iter.     Column Row Layer    Maximum-Head-Change  Column Row Layer    Maximum-Flux-Residual          L2-NORM 
          0                 1           2             2    2     1       0.6374594715E-02       2    2    1         0.3327166406E+00      0.7924177418E+00
          0                 2           2             2    2     1      -0.6200757414E-03       2    2    1        -0.3327176370E-01      0.7831914655E-01
          0                 3           1             2    2     1       0.4222484433E-04       2    2    1         0.2329023515E-02      0.5409417378E-02

    ------------------------------------------------
       NWT REQUIRED            3 OUTER ITERATIONS 
       AND A TOTAL OF          5 INNER ITERATIONS.
    ------------------------------------------------

 NO OUTPUT CONTROL FOR STRESS PERIOD    4   TIME STEP   10
 
 SOLVING FOR HEAD 
                                                   Max.-Head-Change                         Max.-Flux-Residual
  Residual-Control   Outer-Iter.   Inner-Iter.     Column Row Layer    Maximum-Head-Change  Column Row Layer    Maximum-Flux-Residual          L2-NORM 
          0                 1           2             2    2     1       0.6336822402E-02       2    2    1         0.3307309510E+00      0.7684690457E+00
          0                 2           2             2    2     1      -0.6164014999E-03       2    2    1        -0.3307319304E-01      0.7603062674E-01
          0                 3           1             2    2     1       0.4197464281E-04       2    2    1         0.2315123596E-02      0.5246975101E-02

    ------------------------------------------------
       NWT REQUIRED            3 OUTER ITERATIONS 
       AND A TOTAL OF          5 INNER ITERATIONS.
    ------------------------------------------------

 NO OUTPUT CONTROL FOR STRESS PERIOD    4   TIME STEP   11
 
 SOLVING FOR HEAD 
                                                   Max.-Head-Change                         Max.-Flux-Residual
  Residual-Control   Outer-Iter.   Inner-Iter.     Column Row Layer    Maximum-Head-Change  Column Row Layer    Maximum-Flux-Residual          L2-NORM 
          0                 1           2             2    2     1       0.6299567450E-02       2    2    1         0.3287725017E+00      0.7470973967E+00
          0                 2           2             2    2     1      -0.6127775841E-03       2    2    1        -0.3287734648E-01      0.7398844096E-01
          0                 3           1             2    2     1       0.4172786738E-04       2    2    1         0.2301414325E-02      0.5112770180E-02

    ------------------------------------------------
       NWT REQUIRED            3 OUTER ITERATIONS 
       AND A TOTAL OF          5 INNER ITERATIONS.
    ------------------------------------------------

 NO OUTPUT CONTROL FOR STRESS PERIOD    4   TIME STEP   12
 
 SOLVING FOR HEAD 
                                                   Max.-Head-Change                         Max.-Flux-Residual
  Residual-Control   Outer-Iter.   Inner-Iter.     Column Row Layer    Maximum-Head-Change  Column Row Layer    Maximum-Flux-Residual          L2-NORM 
          0                 1           2             2    2     1       0.6262821713E-02       2    2    1         0.3268408770E+00      0.7280136546E+00
          0                 2           2             2    2     1      -0.6092032019E-03       2    2    1        -0.3268418240E-01      0.7216365758E-01
          0                 3           1             2    2     1       0.4148446596E-04       2    2    1         0.2287892877E-02      0.4992646023E-02

    ------------------------------------------------
       NWT REQUIRED            3 OUTER ITERATIONS 
       AND A TOTAL OF          5 INNER ITERATIONS.
    ------------------------------------------------

 NO OUTPUT CONTROL FOR STRESS PERIOD    4   TIME STEP   13
 
 SOLVING FOR HEAD 
                                                   Max.-Head-Change                         Max.-Flux-Residual
  Residual-Control   Outer-Iter.   Inner-Iter.     Column Row Layer    Maximum-Head-Change  Column Row Layer    Maximum-Flux-Residual          L2-NORM 
          0                 1           2             2    2     1       0.6226577060E-02       2    2    1         0.3249356545E+00      0.7109369090E+00
          0                 2           2             2    2     1      -0.6056775611E-03       2    2    1        -0.3249365856E-01      0.7053181597E-01
          0                 3           1             2    2     1       0.4124438270E-04       2    2    1         0.2274556187E-02      0.4885479325E-02

    ------------------------------------------------
       NWT REQUIRED            3 OUTER ITERATIONS 
       AND A TOTAL OF          5 INNER ITERATIONS.
    ------------------------------------------------

 NO OUTPUT CONTROL FOR STRESS PERIOD    4   TIME STEP   14
 
 SOLVING FOR HEAD 
                                                   Max.-Head-Change                         Max.-Flux-Residual
  Residual-Control   Outer-Iter.   Inner-Iter.     Column Row Layer    Maximum-Head-Change  Column Row Layer    Maximum-Flux-Residual          L2-NORM 
          0                 1           2             2    2     1       0.6190739070E-02       2    2    1         0.3230518714E+00      0.6956266604E+00
          0                 2           2             2    2     1      -0.6021914790E-03       2    2    1        -0.3230527872E-01      0.6906580012E-01
          0                 3           1             2    2     1       0.4100699396E-04       2    2    1         0.2261369624E-02      0.4788837868E-02

    ------------------------------------------------
       NWT REQUIRED            3 OUTER ITERATIONS 
       AND A TOTAL OF          5 INNER ITERATIONS.
    ------------------------------------------------

 NO OUTPUT CONTROL FOR STRESS PERIOD    4   TIME STEP   15
 
 SOLVING FOR HEAD 
                                                   Max.-Head-Change                         Max.-Flux-Residual
  Residual-Control   Outer-Iter.   Inner-Iter.     Column Row Layer    Maximum-Head-Change  Column Row Layer    Maximum-Flux-Residual          L2-NORM 
          0                 1           2             2    2     1       0.6155387908E-02       2    2    1         0.3211937144E+00      0.6818808157E+00
          0                 2           2             2    2     1      -0.5987527518E-03       2    2    1        -0.3211946150E-01      0.6775022155E-01
          0                 3           1             2    2     1       0.4077282943E-04       2    2    1         0.2248362424E-02      0.4701993589E-02

    ------------------------------------------------
       NWT REQUIRED            3 OUTER ITERATIONS 
       AND A TOTAL OF          5 INNER ITERATIONS.
    ------------------------------------------------

 NO OUTPUT CONTROL FOR STRESS PERIOD    4   TIME STEP   16
 
 SOLVING FOR HEAD 
                                                   Max.-Head-Change                         Max.-Flux-Residual
  Residual-Control   Outer-Iter.   Inner-Iter.     Column Row Layer    Maximum-Head-Change  Column Row Layer    Maximum-Flux-Residual          L2-NORM 
          0                 1           2             2    2     1       0.6120515486E-02       2    2    1         0.3193607989E+00      0.6695126363E+00
          0                 2           2             2    2     1      -0.5953605942E-03       2    2    1        -0.3193616850E-01      0.6656479729E-01
          0                 3           1             2    2     1       0.4054183632E-04       2    2    1         0.2235531923E-02      0.4623589023E-02

    ------------------------------------------------
       NWT REQUIRED            3 OUTER ITERATIONS 
       AND A TOTAL OF          5 INNER ITERATIONS.
    ------------------------------------------------

 NO OUTPUT CONTROL FOR STRESS PERIOD    4   TIME STEP   17
 
 SOLVING FOR HEAD 
                                                   Max.-Head-Change                         Max.-Flux-Residual
  Residual-Control   Outer-Iter.   Inner-Iter.     Column Row Layer    Maximum-Head-Change  Column Row Layer    Maximum-Flux-Residual          L2-NORM 
          0                 1           2             2    2     1       0.6086114633E-02       2    2    1         0.3175527054E+00      0.6583452150E+00
          0                 2           2             2    2     1      -0.5920143074E-03       2    2    1        -0.3175535769E-01      0.6549316991E-01
          0                 3           1             2    2     1       0.4031396705E-04       2    2    1         0.2222875187E-02      0.4553341359E-02

    ------------------------------------------------
       NWT REQUIRED            3 OUTER ITERATIONS 
       AND A TOTAL OF          5 INNER ITERATIONS.
    ------------------------------------------------

 NO OUTPUT CONTROL FOR STRESS PERIOD    4   TIME STEP   18
 
 SOLVING FOR HEAD 
                                                   Max.-Head-Change                         Max.-Flux-Residual
  Residual-Control   Outer-Iter.   Inner-Iter.     Column Row Layer    Maximum-Head-Change  Column Row Layer    Maximum-Flux-Residual          L2-NORM 
          0                 1           2             2    2     1       0.6052091381E-02       2    2    1         0.3157645204E+00      0.6482276980E+00
          0                 2           2             2    2     1      -0.5887047513E-03       2    2    1        -0.3157653780E-01      0.6451213393E-01
          0                 3           1             2    2     1       0.4008859824E-04       2    2    1         0.2210357780E-02      0.4488456786E-02

    ------------------------------------------------
       NWT REQUIRED            3 OUTER ITERATIONS 
       AND A TOTAL OF          5 INNER ITERATIONS.
    ------------------------------------------------

 NO OUTPUT CONTROL FOR STRESS PERIOD    4   TIME STEP   19
 
 SOLVING FOR HEAD 
                                                   Max.-Head-Change                         Max.-Flux-Residual
  Residual-Control   Outer-Iter.   Inner-Iter.     Column Row Layer    Maximum-Head-Change  Column Row Layer    Maximum-Flux-Residual          L2-NORM 
          0                 1           2             2    2     1       0.6018525976E-02       2    2    1         0.3140004553E+00      0.6390655817E+00
          0                 2           2             2    2     1      -0.5854397320E-03       2    2    1        -0.3140012992E-01      0.6364081548E-01
          0                 3           1             2    2     1       0.3986626287E-04       2    2    1         0.2198009244E-02      0.4430603157E-02

    ------------------------------------------------
       NWT REQUIRED            3 OUTER ITERATIONS 
       AND A TOTAL OF          5 INNER ITERATIONS.
    ------------------------------------------------

 NO OUTPUT CONTROL FOR STRESS PERIOD    4   TIME STEP   20
 
 SOLVING FOR HEAD 
                                                   Max.-Head-Change                         Max.-Flux-Residual
  Residual-Control   Outer-Iter.   Inner-Iter.     Column Row Layer    Maximum-Head-Change  Column Row Layer    Maximum-Flux-Residual          L2-NORM 
          0                 1           2             2    2     1       0.5985411238E-02       2    2    1         0.3122601291E+00      0.6307118346E+00
          0                 2           2             2    2     1      -0.5822185507E-03       2    2    1        -0.3122609595E-01      0.6283621108E-01
          0                 3           1             2    2     1       0.3964691290E-04       2    2    1         0.2185826881E-02      0.4377248518E-02

    ------------------------------------------------
       NWT REQUIRED            3 OUTER ITERATIONS 
       AND A TOTAL OF          5 INNER ITERATIONS.
    ------------------------------------------------

 NO OUTPUT CONTROL FOR STRESS PERIOD    4   TIME STEP   21
 
 SOLVING FOR HEAD 
                                                   Max.-Head-Change                         Max.-Flux-Residual
  Residual-Control   Outer-Iter.   Inner-Iter.     Column Row Layer    Maximum-Head-Change  Column Row Layer    Maximum-Flux-Residual          L2-NORM 
          0                 1           2             2    2     1       0.5952740458E-02       2    2    1         0.3105431695E+00      0.6230913148E+00
          0                 2           2             2    2     1      -0.5790405548E-03       2    2    1        -0.3105439867E-01      0.6210147237E-01
          0                 3           1             2    2     1       0.3943050336E-04       2    2    1         0.2173808085E-02      0.4328133359E-02

    ------------------------------------------------
       NWT REQUIRED            3 OUTER ITERATIONS 
       AND A TOTAL OF          5 INNER ITERATIONS.
    ------------------------------------------------

 NO OUTPUT CONTROL FOR STRESS PERIOD    4   TIME STEP   22
 
 SOLVING FOR HEAD 
                                                   Max.-Head-Change                         Max.-Flux-Residual
  Residual-Control   Outer-Iter.   Inner-Iter.     Column Row Layer    Maximum-Head-Change  Column Row Layer    Maximum-Flux-Residual          L2-NORM 
          0                 1           2             2    2     1       0.5920419780E-02       2    2    1         0.3088446859E+00      0.6160982681E+00
          0                 2           2             2    2     1      -0.5758966146E-03       2    2    1        -0.3088454901E-01      0.6142569063E-01
          0                 3           1             2    2     1       0.3921641298E-04       2    2    1         0.2161918619E-02      0.4282615185E-02

    ------------------------------------------------
       NWT REQUIRED            3 OUTER ITERATIONS 
       AND A TOTAL OF          5 INNER ITERATIONS.
    ------------------------------------------------

 NO OUTPUT CONTROL FOR STRESS PERIOD    4   TIME STEP   23
 
 SOLVING FOR HEAD 
                                                   Max.-Head-Change                         Max.-Flux-Residual
  Residual-Control   Outer-Iter.   Inner-Iter.     Column Row Layer    Maximum-Head-Change  Column Row Layer    Maximum-Flux-Residual          L2-NORM 
          0                 1           2             2    2     1       0.5888530286E-02       2    2    1         0.3071688972E+00      0.6096753960E+00
          0                 2           2             2    2     1      -0.5727946173E-03       2    2    1        -0.3071696888E-01      0.6080428787E-01
          0                 3           1             2    2     1       0.3900517853E-04       2    2    1         0.2150188006E-02      0.4241289625E-02

    ------------------------------------------------
       NWT REQUIRED            3 OUTER ITERATIONS 
       AND A TOTAL OF          5 INNER ITERATIONS.
    ------------------------------------------------

 NO OUTPUT CONTROL FOR STRESS PERIOD    4   TIME STEP   24
 
 SOLVING FOR HEAD 
                                                   Max.-Head-Change                         Max.-Flux-Residual
  Residual-Control   Outer-Iter.   Inner-Iter.     Column Row Layer    Maximum-Head-Change  Column Row Layer    Maximum-Flux-Residual          L2-NORM 
          0                 1           2             2    2     1       0.5857064878E-02       2    2    1         0.3055154650E+00      0.6037479985E+00
          0                 2           2             2    2     1      -0.5697338725E-03       2    2    1        -0.3055162443E-01      0.6023006752E-01
          0                 3           1             2    2     1       0.3879675293E-04       2    2    1         0.2138613895E-02      0.4202592818E-02

    ------------------------------------------------
       NWT REQUIRED            3 OUTER ITERATIONS 
       AND A TOTAL OF          5 INNER ITERATIONS.
    ------------------------------------------------

 NO OUTPUT CONTROL FOR STRESS PERIOD    4   TIME STEP   25
 
 SOLVING FOR HEAD 
                                                   Max.-Head-Change                         Max.-Flux-Residual
  Residual-Control   Outer-Iter.   Inner-Iter.     Column Row Layer    Maximum-Head-Change  Column Row Layer    Maximum-Flux-Residual          L2-NORM 
          0                 1           2             2    2     1       0.5826017280E-02       2    2    1         0.3038840211E+00      0.5982710964E+00
          0                 2           2             2    2     1      -0.5667137698E-03       2    2    1        -0.3038847885E-01      0.5969845472E-01
          0                 3           1             2    2     1       0.3859109545E-04       2    2    1         0.2127193710E-02      0.4167130875E-02

    ------------------------------------------------
       NWT REQUIRED            3 OUTER ITERATIONS 
       AND A TOTAL OF          5 INNER ITERATIONS.
    ------------------------------------------------

 NO OUTPUT CONTROL FOR STRESS PERIOD    4   TIME STEP   26
 
 SOLVING FOR HEAD 
                                                   Max.-Head-Change                         Max.-Flux-Residual
  Residual-Control   Outer-Iter.   Inner-Iter.     Column Row Layer    Maximum-Head-Change  Column Row Layer    Maximum-Flux-Residual          L2-NORM 
          0                 1           2             2    2     1       0.5795294424E-02       2    2    1         0.3022696967E+00      0.5931739772E+00
          0                 2           2             2    2     1      -0.5637252560E-03       2    2    1        -0.3022704524E-01      0.5920295321E-01
          0                 3           1             2    2     1       0.3838758886E-04       2    2    1         0.2115893366E-02      0.4133782296E-02

    ------------------------------------------------
       NWT REQUIRED            3 OUTER ITERATIONS 
       AND A TOTAL OF          5 INNER ITERATIONS.
    ------------------------------------------------

 NO OUTPUT CONTROL FOR STRESS PERIOD    4   TIME STEP   27
 
 SOLVING FOR HEAD 
                                                   Max.-Head-Change                         Max.-Flux-Residual
  Residual-Control   Outer-Iter.   Inner-Iter.     Column Row Layer    Maximum-Head-Change  Column Row Layer    Maximum-Flux-Residual          L2-NORM 
          0                 1           2             2    2     1       0.5764977504E-02       2    2    1         0.3006767532E+00      0.5884279859E+00
          0                 2           2             2    2     1      -0.5607762282E-03       2    2    1        -0.3006774970E-01      0.5874100322E-01
          0                 3           1             2    2     1       0.3818677088E-04       2    2    1         0.2104742672E-02      0.4102723644E-02

    ------------------------------------------------
       NWT REQUIRED            3 OUTER ITERATIONS 
       AND A TOTAL OF          5 INNER ITERATIONS.
    ------------------------------------------------

 NO OUTPUT CONTROL FOR STRESS PERIOD    4   TIME STEP   28
 
 SOLVING FOR HEAD 
                                                   Max.-Head-Change                         Max.-Flux-Residual
  Residual-Control   Outer-Iter.   Inner-Iter.     Column Row Layer    Maximum-Head-Change  Column Row Layer    Maximum-Flux-Residual          L2-NORM 
          0                 1           2             2    2     1       0.5735060561E-02       2    2    1         0.2991048570E+00      0.5839923561E+00
          0                 2           2             2    2     1      -0.5578661090E-03       2    2    1        -0.2991055898E-01      0.5830807426E-01
          0                 3           1             2    2     1       0.3798860293E-04       2    2    1         0.2093739339E-02      0.4073216818E-02

    ------------------------------------------------
       NWT REQUIRED            3 OUTER ITERATIONS 
       AND A TOTAL OF          5 INNER ITERATIONS.
    ------------------------------------------------

 NO OUTPUT CONTROL FOR STRESS PERIOD    4   TIME STEP   29
 
 SOLVING FOR HEAD 
                                                   Max.-Head-Change                         Max.-Flux-Residual
  Residual-Control   Outer-Iter.   Inner-Iter.     Column Row Layer    Maximum-Head-Change  Column Row Layer    Maximum-Flux-Residual          L2-NORM 
          0                 1           2             2    2     1       0.4577996419E-02       2    2    1         0.2386111771E+00      0.5557742595E+00
          0                 2           2             2    2     1      -0.4453148557E-03       2    2    1        -0.2386116026E-01      0.5516754407E-01
          0                 3           1             2    2     1       0.3032428480E-04       2    2    1         0.1670281552E-02      0.3825112880E-02

    ------------------------------------------------
       NWT REQUIRED            3 OUTER ITERATIONS 
       AND A TOTAL OF          5 INNER ITERATIONS.
    ------------------------------------------------

 NO OUTPUT CONTROL FOR STRESS PERIOD    4   TIME STEP   30



 STREAM LISTING     PERIOD      4   STEP       30

 LAYER ROW COL. STREAM  RCH.  FLOW INTO     FLOW TO   FLOW OUT OF   OVRLND.     DIRECT     STREAM       STREAM     STREAM     STREAM   STREAMBED  STREAMBED
                SEG.NO.  NO.  STRM. RCH.    AQUIFER    STRM. RCH.    RUNOFF     PRECIP       ET          HEAD       DEPTH      WIDTH   CONDCTNC.   GRADIENT

   1    1    1     1     1    4.6685E+01  3.2585E-01   4.6359E+01  0.000E+00  0.000E+00  0.000E+00  1.09443E+03  1.378E+00  1.654E+01  7.443E-02  1.459E+00
   1    2    2     1     2    4.6359E+01  5.0484E-01   4.5855E+01  0.000E+00  0.000E+00  0.000E+00  1.08943E+03  1.375E+00  1.648E+01  1.154E-01  1.458E+00
   1    3    3     1     3    4.5855E+01  4.3074E-01   4.5424E+01  0.000E+00  0.000E+00  0.000E+00  1.08379E+03  1.372E+00  1.642E+01  9.852E-02  1.457E+00
   1    3    4     1     4    4.5424E+01  3.9680E-01   4.5027E+01  0.000E+00  0.000E+00  0.000E+00  1.07878E+03  1.369E+00  1.636E+01  9.082E-02  1.456E+00
   1    4    5     2     1    4.3027E+01  3.6413E-01   4.2663E+01  0.000E+00  0.000E+00  0.000E+00  1.07360E+03  1.668E+00  1.200E+01  7.800E-02  1.556E+00
   1    5    6     2     2    4.2663E+01  2.7965E-01   4.2383E+01  0.000E+00  0.000E+00  0.000E+00  1.06817E+03  1.661E+00  1.200E+01  6.000E-02  1.554E+00
   1    6    6     2     3    4.2383E+01  2.7926E-01   4.2104E+01  0.000E+00  0.000E+00  0.000E+00  1.06345E+03  1.654E+00  1.200E+01  6.000E-02  1.551E+00
   1    7    6     2     4    4.2104E+01  2.7886E-01   4.1825E+01  0.000E+00  0.000E+00  0.000E+00  1.05872E+03  1.648E+00  1.200E+01  6.000E-02  1.549E+00
   1    8    6     2     5    4.1825E+01  2.7847E-01   4.1547E+01  0.000E+00  0.000E+00  0.000E+00  1.05400E+03  1.641E+00  1.200E+01  6.000E-02  1.547E+00
   1    3    5     3     1    2.0000E+00  2.8252E-01   1.7175E+00  0.000E+00  0.000E+00  0.000E+00  1.07555E+03  1.909E+00  9.636E+00  7.227E-02  1.955E+00
   1    3    6     3     2    1.7175E+00  2.4905E-01   1.4684E+00  0.000E+00  0.000E+00  0.000E+00  1.07264E+03  1.727E+00  8.909E+00  6.682E-02  1.864E+00
   1    3    7     3     3    1.4684E+00  1.9718E-01   1.2712E+00  0.000E+00  0.000E+00  0.000E+00  1.06987E+03  1.555E+00  8.218E+00  5.547E-02  1.777E+00
   1    4    8     3     4    1.2712E+00  2.2567E-01   1.0456E+00  0.000E+00  0.000E+00  0.000E+00  1.06682E+03  1.364E+00  7.455E+00  6.709E-02  1.682E+00
   1    5    8     3     5    1.0456E+00  1.5790E-01   8.8768E-01  0.000E+00  0.000E+00  0.000E+00  1.06362E+03  1.164E+00  6.655E+00  4.991E-02  1.582E+00
   1    6    8     3     6    8.8768E-01  5.5980E-02   8.3170E-01  0.000E+00  0.000E+00  0.000E+00  1.06158E+03  1.036E+00  6.145E+00  1.844E-02  1.518E+00
   1    5   10     4     1    1.0000E+01  9.0919E-02   9.9091E+00  0.000E+00  0.000E+00  0.000E+00  1.07836E+03  6.368E-01  1.000E+01  2.500E-02  1.212E+00
   1    5    9     4     2    9.9091E+00  1.8158E-01   9.7275E+00  0.000E+00  0.000E+00  0.000E+00  1.07154E+03  6.315E-01  1.000E+01  5.000E-02  1.211E+00
   1    6    8     4     3    9.7275E+00  1.2689E-01   9.6006E+00  0.000E+00  0.000E+00  0.000E+00  1.06381E+03  6.256E-01  1.000E+01  3.500E-02  1.209E+00
   1    6    8     5     1    1.0432E+01  2.2686E-01   1.0205E+01  0.000E+00  0.000E+00  0.000E+00  1.05868E+03  6.790E-01  1.542E+01  6.166E-02  1.226E+00
   1    7    7     5     2    1.0205E+01  2.7894E-01   9.9265E+00  0.000E+00  0.000E+00  0.000E+00  1.05417E+03  6.732E-01  1.519E+01  7.594E-02  1.224E+00
   1    8    7     5     3    9.9265E+00  1.9221E-01   9.7343E+00  0.000E+00  0.000E+00  0.000E+00  1.04992E+03  6.676E-01  1.497E+01  5.241E-02  1.223E+00
   1    8    6     5     4    9.7343E+00  1.3577E-01   9.5985E+00  0.000E+00  0.000E+00  0.000E+00  1.04691E+03  6.637E-01  1.482E+01  3.706E-02  1.221E+00
   1    9    6     6     1    5.1145E+01  2.9237E-01   5.0853E+01  0.000E+00  0.000E+00  0.000E+00  1.04460E+03  1.873E+00  1.200E+01  6.000E-02  1.624E+00
   1   10    7     6     2    5.0853E+01  2.9199E-01   5.0561E+01  0.000E+00  0.000E+00  0.000E+00  1.04005E+03  1.866E+00  1.200E+01  6.000E-02  1.622E+00
   1   11    7     6     3    5.0561E+01  2.9160E-01   5.0269E+01  0.000E+00  0.000E+00  0.000E+00  1.03550E+03  1.860E+00  1.200E+01  6.000E-02  1.620E+00
   1   12    7     6     4    5.0269E+01  2.9121E-01   4.9978E+01  0.000E+00  0.000E+00  0.000E+00  1.03094E+03  1.854E+00  1.200E+01  6.000E-02  1.618E+00
   1   13    7     6     5    4.9978E+01  1.5046E-02   4.9963E+01  0.000E+00  0.000E+00  0.000E+00  1.02776E+03  1.850E+00  1.200E+01  2.400E-02  2.090E-01
   1   14    9     7     1    1.5000E+02  1.3355E+00   1.4866E+02  0.000E+00  0.000E+00  0.000E+00  1.03987E+03  2.288E+00  5.529E+01  5.593E-01  7.959E-01
   1   13    8     7     2    1.4866E+02  1.8270E+00   1.4684E+02  0.000E+00  0.000E+00  0.000E+00  1.03478E+03  2.279E+00  5.526E+01  6.148E-01  9.906E-01
   1   13    7     7     3    1.4684E+02  1.4284E+00   1.4541E+02  0.000E+00  0.000E+00  0.000E+00  1.02969E+03  2.271E+00  5.522E+01  5.585E-01  8.526E-01
   1   13    6     8     1    1.9537E+02  9.7131E-01   1.9440E+02  0.000E+00  0.000E+00  0.000E+00  1.02498E+03  3.107E+00  4.506E+01  4.591E-01  7.052E-01
   1   13    5     8     2    1.9440E+02  1.7795E-01   1.9422E+02  0.000E+00  0.000E+00  0.000E+00  1.01873E+03  3.104E+00  4.501E+01  4.586E-01  1.293E-01
   1   13    4     8     3    1.9422E+02 -2.6472E+00   1.9687E+02  0.000E+00  0.000E+00  0.000E+00  1.01249E+03  3.111E+00  4.511E+01  4.597E+00 -1.919E-01
   1   13    3     8     4    1.9687E+02 -3.8119E+00   2.0068E+02  0.000E+00  0.000E+00  0.000E+00  1.00626E+03  3.131E+00  4.539E+01  4.626E+00 -2.747E-01
   1   13    2     8     5    2.0068E+02 -2.7019E+00   2.0338E+02  0.000E+00  0.000E+00  0.000E+00  1.00002E+03  3.150E+00  4.567E+01  4.654E+00 -1.935E-01
   1   13    1     8     6    2.0338E+02 -2.0096E+00   2.0539E+02  0.000E+00  0.000E+00  0.000E+00  9.95038E+02  3.163E+00  4.587E+01  2.805E+00 -2.388E-01
   1    8    6     9     1    0.0000E+00  0.0000E+00   0.0000E+00  0.000E+00  0.000E+00  0.000E+00  1.07875E+03  0.000E+00  4.000E+00  0.000E+00  1.000E+00
   1    8    5     9     2    0.0000E+00  0.0000E+00   0.0000E+00  0.000E+00  0.000E+00  0.000E+00  1.07825E+03  0.000E+00  4.000E+00  0.000E+00  1.000E+00





UNSATURATED ZONE PACKAGE VOLUMETRIC BUDGET FOR  TIME STEP    30 STRESS PERIOD    4
  ------------------------------------------------------------------------------



     CUMULATIVE VOLUMES      L**3       RATES FOR THIS TIME STEP      L**3/T
     ------------------                 ------------------------

           IN:                                      IN:
           ---                                      ---
        INFILTRATION =    34848397.6743          INFILTRATION =           4.4075

          OUT:                                     OUT:
          ----                                     ----
              UZF ET =     5720249.6577                UZF ET =           0.7250
        UZF RECHARGE =       73224.0000          UZF RECHARGE =       0.0000E+00

            IN - OUT =    29054924.0166              IN - OUT =           3.6825

          STORAGE:                                 STORAGE:
          --------                                 --------
      STORAGE CHANGE =    29054923.8340        STORAGE CHANGE =           3.6825

 PERCENT DISCREPANCY IS DIFFERENCE BETWEEN IN-OUT MINUS CHANGE IN STORAGE
 DIVIDED BY THE AVERAGE OF IN AND OUT TIMES 100

 PERCENT DISCREPANCY =           0.00     PERCENT DISCREPANCY =           0.00






1
  VOLUMETRIC BUDGET FOR AGRICULTURAL FIELDS AT  END OF TIME STEP   30, STRESS PERIOD   4
  ------------------------------------------------------------------------------

     CUMULATIVE VOLUMES      L**3       RATES FOR THIS TIME STEP      L**3/T
     ------------------                 ------------------------

           IN:                                      IN:
           ---                                      ---
               AG WELLS  =           0.0000                 AG WELLS  =           0.0000
      DIVERSION SEGMENTS =           0.0000        DIVERSION SEGMENTS =           0.0000
           GW IRRIGATION =           0.0000             GW IRRIGATION =           0.0000
           SW IRRIGATION =           0.0000             SW IRRIGATION =           0.0000
        SYSTEM LOSSES GW =           0.0000          SYSTEM LOSSES GW =           0.0000
        SYSTEM LOSSES SW =           0.0000          SYSTEM LOSSES SW =           0.0000

                TOTAL IN =           0.0000                  TOTAL IN =           0.0000

          OUT:                                     OUT:
          ----                                     ----
               AG WELLS  =           0.0000                 AG WELLS  =           0.0000
      DIVERSION SEGMENTS =           0.0000        DIVERSION SEGMENTS =           0.0000
           GW IRRIGATION =           0.0000             GW IRRIGATION =           0.0000
           SW IRRIGATION =           0.0000             SW IRRIGATION =           0.0000
        SYSTEM LOSSES GW =           0.0000          SYSTEM LOSSES GW =           0.0000
        SYSTEM LOSSES SW =           0.0000          SYSTEM LOSSES SW =           0.0000

               TOTAL OUT =           0.0000                 TOTAL OUT =           0.0000

                IN - OUT =           0.0000                  IN - OUT =           0.0000

     PERCENT DISCREPANCY =           0.00         PERCENT DISCREPANCY =           0.00



1
  VOLUMETRIC BUDGET FOR ENTIRE MODEL AT END OF TIME STEP   30, STRESS PERIOD   4
  ------------------------------------------------------------------------------

     CUMULATIVE VOLUMES      L**3       RATES FOR THIS TIME STEP      L**3/T
     ------------------                 ------------------------

           IN:                                      IN:
           ---                                      ---
             STORAGE     =     4352766.5000               STORAGE     =           0.9334
       CONSTANT HEAD     =           0.0000         CONSTANT HEAD     =           0.0000
     HEAD DEP BOUNDS     =     2278729.0000       HEAD DEP BOUNDS     =           0.2857
      STREAM LEAKAGE     =    95891928.0000        STREAM LEAKAGE     =          12.4623
        UZF RECHARGE     =       73223.9531          UZF RECHARGE     =           0.0000
               GW ET     =           0.0000                 GW ET     =           0.0000
     SURFACE LEAKAGE     =           0.0000       SURFACE LEAKAGE     =           0.0000
           AG WELLS      =           0.0000             AG WELLS      =           0.0000

                TOTAL IN =   102596648.0000                  TOTAL IN =          13.6815

          OUT:                                     OUT:
          ----                                     ----
             STORAGE     =    18029954.0000               STORAGE     =           2.2167
       CONSTANT HEAD     =           0.0000         CONSTANT HEAD     =           0.0000
     HEAD DEP BOUNDS     =     2316606.5000       HEAD DEP BOUNDS     =           0.2947
      STREAM LEAKAGE     =    82253968.0000        STREAM LEAKAGE     =          11.1705
        UZF RECHARGE     =           0.0000          UZF RECHARGE     =           0.0000
               GW ET     =       1.0815E-06                 GW ET     =       1.3650E-12
     SURFACE LEAKAGE     =           0.0000       SURFACE LEAKAGE     =           0.0000
           AG WELLS      =           0.0000             AG WELLS      =           0.0000

               TOTAL OUT =   102600528.0000                 TOTAL OUT =          13.6819

                IN - OUT =       -3880.0000                  IN - OUT =      -3.6430E-04

     PERCENT DISCREPANCY =          -0.00         PERCENT DISCREPANCY =          -0.00






         TIME SUMMARY AT END OF TIME STEP   30 IN STRESS PERIOD    4
                    SECONDS     MINUTES      HOURS       DAYS        YEARS
                    -----------------------------------------------------------
   TIME STEP LENGTH  87667.      1461.1      24.352      1.0147     2.77799E-03
 STRESS PERIOD TIME 2.63000E+06  43833.      730.56      30.440     8.33397E-02
         TOTAL TIME 7.97639E+06 1.32940E+05  2215.7      92.319     0.25276    
1
1
                            STRESS PERIOD NO.    5, LENGTH =   2630000.    
                            -----------------------------------------------

                              NUMBER OF TIME STEPS =    30

                               MULTIPLIER FOR DELT =     1.000

                            INITIAL TIME STEP SIZE =   87666.66    

 REUSING NON-PARAMETER GHB CELLS FROM LAST STRESS PERIOD

      2 GHB CELLS

 REUSING STREAM SEGMENT DATA FROM LAST STRESS PERIOD



            AREAL INFILTRATION RATE
 READING ON UNIT   19 WITH FORMAT: (10F4.0)            

            1           2           3           4           5           6           7           8           9          10
 ........................................................................................................................
   1   1.2000E-09   0.000       0.000       0.000       0.000       0.000       0.000       0.000       0.000       0.000    
   2   2.1000E-09  2.0000E-09  8.0000E-10  8.5000E-09   0.000       0.000       0.000       0.000       0.000       0.000    
   3   5.0000E-10  1.1000E-09  8.8000E-09  5.5000E-09   0.000       0.000       0.000       0.000       0.000       0.000    
   4   8.5000E-09  1.1000E-09  1.1000E-09  1.1000E-09  2.0000E-09   0.000       0.000       0.000       0.000       0.000    
   5   8.5000E-09  1.1000E-09  1.1000E-09  1.1000E-09  1.1000E-09   0.000       0.000       0.000       0.000       0.000    
   6   8.5000E-09  5.2000E-09  2.1000E-09  1.1000E-09  1.5000E-09   0.000       0.000       0.000       0.000       0.000    
   7   8.5000E-09  5.2000E-09  2.1000E-09  1.2000E-09  2.0000E-09   0.000       0.000       0.000       0.000       0.000    
   8   5.0000E-10  5.2000E-09  2.1000E-09  1.2000E-09  5.0000E-09   0.000       0.000       0.000       0.000       0.000    
   9   5.0000E-10  5.2000E-09  2.1000E-09  1.2000E-09  5.0000E-09   0.000       0.000       0.000       0.000       0.000    
  10   5.0000E-10  5.2000E-09  2.1000E-09  1.2000E-09  5.8000E-09   0.000       0.000       0.000       0.000       0.000    
  11   1.0000E-10  1.1000E-09  1.1000E-09  1.2000E-09  5.0000E-09   0.000       0.000       0.000       0.000       0.000    
  12   1.1000E-09  1.1000E-09  1.1000E-09  1.1000E-09  2.0000E-09   0.000       0.000       0.000       0.000       0.000    
  13   1.1000E-09  2.2000E-09  2.2000E-09  2.1000E-09  1.0000E-09   0.000       0.000       0.000       0.000       0.000    
  14   2.0000E-10  5.5000E-09  5.5000E-09  5.2000E-09  1.0000E-09   0.000       0.000       0.000       0.000       0.000    
  15    0.000      8.8000E-09  8.8000E-09   0.000       0.000       0.000       0.000       0.000       0.000       0.000    

                  ET RATE =  2.500000E-08

 USING ET EXTINCTION DEPTH FROM PREVIOUS STRESS PERIOD. CURRENT PERIOD IS:       5

 USING EXTINCTION WATER CONTENT FROM PREVIOUS STRESS PERIOD. CURRENT PERIOD IS:       5

 USING AIR ENTRY PRESSURE FROM PREVIOUS STRESS PERIOD. CURRENT PERIOD IS:       5

 USING ROOT PRESSURE HEAD FROM PREVIOUS STRESS PERIOD. CURRENT PERIOD IS:       5

 USING ROOT ACTIVITY FROM PREVIOUS STRESS PERIOD. CURRENT PERIOD IS:       5

 PROCESSING AG STRESS PERIOD DATA

 READING AG STRESS PERIOD DATA

 READING IRRIGATION SEGMENT

 READING IRRIGATION WELL

 READING SUPPLEMENTAL WELL

 END PROCESSING AG STRESS PERIOD DATA OPTIONS
 
 SOLVING FOR HEAD 
                                                   Max.-Head-Change                         Max.-Flux-Residual
  Residual-Control   Outer-Iter.   Inner-Iter.     Column Row Layer    Maximum-Head-Change  Column Row Layer    Maximum-Flux-Residual          L2-NORM 
          0                 1           2             4   13     1      -0.1222714987E-01       4   13    1        -0.7024658351E+00      0.1224192158E+01
          0                 2           2             4   13     1       0.1179399550E-02       4   13    1         0.6966745714E-01      0.1194283873E+00
          0                 3           1             4   13     1      -0.7937532969E-04       4   13    1        -0.4820766547E-02      0.8078627234E-02

    ------------------------------------------------
       NWT REQUIRED            3 OUTER ITERATIONS 
       AND A TOTAL OF          5 INNER ITERATIONS.
    ------------------------------------------------

 NO OUTPUT CONTROL FOR STRESS PERIOD    5   TIME STEP    1
 
 SOLVING FOR HEAD 
                                                   Max.-Head-Change                         Max.-Flux-Residual
  Residual-Control   Outer-Iter.   Inner-Iter.     Column Row Layer    Maximum-Head-Change  Column Row Layer    Maximum-Flux-Residual          L2-NORM 
          0                 1           2             4   13     1      -0.1106477027E-01       4   13    1        -0.6354250892E+00      0.1130051197E+01
          0                 2           2             4    7     1      -0.3135673433E-02       5    6    1        -0.1699871643E+00      0.4209593921E+00
          0                 3           2             4    7     1       0.2895082505E-02       5    6    1         0.1599466321E+00      0.3939973679E+00
          0                 4           1             4    7     1      -0.9226672474E-04       5    6    1        -0.5239577080E-02      0.1312012767E-01

    ------------------------------------------------
       NWT REQUIRED            4 OUTER ITERATIONS 
       AND A TOTAL OF          7 INNER ITERATIONS.
    ------------------------------------------------

 OUTPUT CONTROL FOR STRESS PERIOD    5   TIME STEP    2
    PRINT BUDGET
    SAVE BUDGET
 UBDSV1 SAVING "         STORAGE" ON UNIT 102 AT TIME STEP  2, STRESS PERIOD   5
 UBDSV2 SAVING "   CONSTANT HEAD" ON UNIT 102 AT TIME STEP  2, STRESS PERIOD   5
 UBDSV1 SAVING "FLOW RIGHT FACE " ON UNIT 102 AT TIME STEP  2, STRESS PERIOD   5
 UBDSV1 SAVING "FLOW FRONT FACE " ON UNIT 102 AT TIME STEP  2, STRESS PERIOD   5

  HEAD DEP BOUNDS   PERIOD    5   STEP     2
 BOUNDARY      1   LAYER   1   ROW    13   COL     1   RATE   -0.294269    
 BOUNDARY      2   LAYER   1   ROW    14   COL     9   RATE    0.285737    



 STREAM LISTING     PERIOD      5   STEP        2

 LAYER ROW COL. STREAM  RCH.  FLOW INTO     FLOW TO   FLOW OUT OF   OVRLND.     DIRECT     STREAM       STREAM     STREAM     STREAM   STREAMBED  STREAMBED
                SEG.NO.  NO.  STRM. RCH.    AQUIFER    STRM. RCH.    RUNOFF     PRECIP       ET          HEAD       DEPTH      WIDTH   CONDCTNC.   GRADIENT

   1    1    1     1     1    2.1000E+01  2.2591E-01   2.0774E+01  0.000E+00  0.000E+00  0.000E+00  1.09416E+03  1.115E+00  1.220E+01  5.490E-02  1.372E+00
   1    2    2     1     2    2.0774E+01  3.4916E-01   2.0425E+01  0.000E+00  0.000E+00  0.000E+00  1.08917E+03  1.110E+00  1.214E+01  8.495E-02  1.370E+00
   1    3    3     1     3    2.0425E+01  2.9709E-01   2.0128E+01  0.000E+00  0.000E+00  0.000E+00  1.08352E+03  1.105E+00  1.206E+01  7.238E-02  1.368E+00
   1    3    4     1     4    2.0128E+01  2.7299E-01   1.9855E+01  0.000E+00  0.000E+00  0.000E+00  1.07851E+03  1.100E+00  1.200E+01  6.659E-02  1.367E+00
   1    4    5     2     1    1.7855E+01  3.1056E-01   1.7544E+01  0.000E+00  0.000E+00  0.000E+00  1.07292E+03  9.816E-01  1.200E+01  7.800E-02  1.327E+00
   1    5    6     2     2    1.7544E+01  2.3834E-01   1.7306E+01  0.000E+00  0.000E+00  0.000E+00  1.06748E+03  9.724E-01  1.200E+01  6.000E-02  1.324E+00
   1    6    6     2     3    1.7306E+01  2.3786E-01   1.7068E+01  0.000E+00  0.000E+00  0.000E+00  1.06276E+03  9.644E-01  1.200E+01  6.000E-02  1.321E+00
   1    7    6     2     4    1.7068E+01  2.3738E-01   1.6831E+01  0.000E+00  0.000E+00  0.000E+00  1.05803E+03  9.564E-01  1.200E+01  6.000E-02  1.319E+00
   1    8    6     2     5    1.6831E+01  2.3690E-01   1.6594E+01  0.000E+00  0.000E+00  0.000E+00  1.05331E+03  9.483E-01  1.200E+01  6.000E-02  1.316E+00
   1    3    5     3     1    2.0000E+00  2.8252E-01   1.7175E+00  0.000E+00  0.000E+00  0.000E+00  1.07555E+03  1.909E+00  9.636E+00  7.227E-02  1.955E+00
   1    3    6     3     2    1.7175E+00  2.4905E-01   1.4684E+00  0.000E+00  0.000E+00  0.000E+00  1.07264E+03  1.727E+00  8.909E+00  6.682E-02  1.864E+00
   1    3    7     3     3    1.4684E+00  1.9718E-01   1.2712E+00  0.000E+00  0.000E+00  0.000E+00  1.06987E+03  1.555E+00  8.218E+00  5.547E-02  1.777E+00
   1    4    8     3     4    1.2712E+00  2.2567E-01   1.0456E+00  0.000E+00  0.000E+00  0.000E+00  1.06682E+03  1.364E+00  7.455E+00  6.709E-02  1.682E+00
   1    5    8     3     5    1.0456E+00  1.5790E-01   8.8768E-01  0.000E+00  0.000E+00  0.000E+00  1.06362E+03  1.164E+00  6.655E+00  4.991E-02  1.582E+00
   1    6    8     3     6    8.8768E-01  5.5980E-02   8.3170E-01  0.000E+00  0.000E+00  0.000E+00  1.06158E+03  1.036E+00  6.145E+00  1.844E-02  1.518E+00
   1    5   10     4     1    1.0000E+01  9.0919E-02   9.9091E+00  0.000E+00  0.000E+00  0.000E+00  1.07836E+03  6.368E-01  1.000E+01  2.500E-02  1.212E+00
   1    5    9     4     2    9.9091E+00  1.8158E-01   9.7275E+00  0.000E+00  0.000E+00  0.000E+00  1.07154E+03  6.315E-01  1.000E+01  5.000E-02  1.211E+00
   1    6    8     4     3    9.7275E+00  1.2689E-01   9.6006E+00  0.000E+00  0.000E+00  0.000E+00  1.06381E+03  6.256E-01  1.000E+01  3.500E-02  1.209E+00
   1    6    8     5     1    1.0432E+01  2.2686E-01   1.0205E+01  0.000E+00  0.000E+00  0.000E+00  1.05868E+03  6.790E-01  1.542E+01  6.166E-02  1.226E+00
   1    7    7     5     2    1.0205E+01  2.7894E-01   9.9265E+00  0.000E+00  0.000E+00  0.000E+00  1.05417E+03  6.732E-01  1.519E+01  7.594E-02  1.224E+00
   1    8    7     5     3    9.9265E+00  1.9221E-01   9.7343E+00  0.000E+00  0.000E+00  0.000E+00  1.04992E+03  6.676E-01  1.497E+01  5.241E-02  1.223E+00
   1    8    6     5     4    9.7343E+00  1.3577E-01   9.5985E+00  0.000E+00  0.000E+00  0.000E+00  1.04691E+03  6.637E-01  1.482E+01  3.706E-02  1.221E+00
   1    9    6     6     1    2.3947E+01  2.5137E-01   2.3696E+01  0.000E+00  0.000E+00  0.000E+00  1.04392E+03  1.190E+00  1.200E+01  6.000E-02  1.397E+00
   1   10    7     6     2    2.3696E+01  2.5092E-01   2.3445E+01  0.000E+00  0.000E+00  0.000E+00  1.03936E+03  1.182E+00  1.200E+01  6.000E-02  1.394E+00
   1   11    7     6     3    2.3445E+01  2.5047E-01   2.3195E+01  0.000E+00  0.000E+00  0.000E+00  1.03481E+03  1.174E+00  1.200E+01  6.000E-02  1.391E+00
   1   12    7     6     4    2.3195E+01  2.5002E-01   2.2945E+01  0.000E+00  0.000E+00  0.000E+00  1.03026E+03  1.167E+00  1.200E+01  6.000E-02  1.389E+00
   1   13    7     6     5    2.2945E+01 -1.4489E-02   2.2959E+01  0.000E+00  0.000E+00  0.000E+00  1.02707E+03  1.163E+00  1.200E+01  2.400E-01 -2.012E-02
   1   14    9     7     1    1.5000E+02  1.3355E+00   1.4866E+02  0.000E+00  0.000E+00  0.000E+00  1.03987E+03  2.288E+00  5.529E+01  5.593E-01  7.959E-01
   1   13    8     7     2    1.4866E+02  1.8267E+00   1.4684E+02  0.000E+00  0.000E+00  0.000E+00  1.03478E+03  2.279E+00  5.526E+01  6.148E-01  9.904E-01
   1   13    7     7     3    1.4684E+02  1.4281E+00   1.4541E+02  0.000E+00  0.000E+00  0.000E+00  1.02969E+03  2.271E+00  5.522E+01  5.585E-01  8.524E-01
   1   13    6     8     1    1.6837E+02  8.4711E-01   1.6752E+02  0.000E+00  0.000E+00  0.000E+00  1.02481E+03  2.940E+00  4.262E+01  4.343E-01  6.501E-01
   1   13    5     8     2    1.6752E+02  9.6226E-02   1.6743E+02  0.000E+00  0.000E+00  0.000E+00  1.01856E+03  2.936E+00  4.258E+01  4.339E-01  7.393E-02
   1   13    4     8     3    1.6743E+02 -3.1298E+00   1.7056E+02  0.000E+00  0.000E+00  0.000E+00  1.01232E+03  2.946E+00  4.272E+01  4.354E+00 -2.396E-01
   1   13    3     8     4    1.7056E+02 -4.2338E+00   1.7479E+02  0.000E+00  0.000E+00  0.000E+00  1.00610E+03  2.970E+00  4.307E+01  4.389E+00 -3.216E-01
   1   13    2     8     5    1.7479E+02 -3.1625E+00   1.7795E+02  0.000E+00  0.000E+00  0.000E+00  9.99869E+02  2.994E+00  4.341E+01  4.424E+00 -2.383E-01
   1   13    1     8     6    1.7795E+02 -2.2898E+00   1.8024E+02  0.000E+00  0.000E+00  0.000E+00  9.94886E+02  3.011E+00  4.366E+01  2.670E+00 -2.859E-01
   1    8    6     9     1    2.2448E+00  0.0000E+00   2.2448E+00  0.000E+00  0.000E+00  0.000E+00  1.07965E+03  8.969E-01  4.000E+00  0.000E+00  1.299E+00
   1    8    5     9     2    2.2448E+00  0.0000E+00   2.2448E+00  0.000E+00  0.000E+00  0.000E+00  1.07915E+03  8.969E-01  4.000E+00  0.000E+00  1.299E+00



 UBDSV3 SAVING "           GW ET" ON UNIT  61 AT TIME STEP  2, STRESS PERIOD   5
 UBDSV3 SAVING "    UZF RECHARGE" ON UNIT  61 AT TIME STEP  2, STRESS PERIOD   5
 UBDSV3 SAVING " SURFACE LEAKAGE" ON UNIT  61 AT TIME STEP  2, STRESS PERIOD   5
 UBDSV3 SAVING "       HORT+DUNN" ON UNIT  61 AT TIME STEP  2, STRESS PERIOD   5
 UBDSV3 SAVING "  STORAGE CHANGE" ON UNIT  61 AT TIME STEP  2, STRESS PERIOD   5


UNSATURATED ZONE PACKAGE VOLUMETRIC BUDGET FOR  TIME STEP     2 STRESS PERIOD    5
  ------------------------------------------------------------------------------



     CUMULATIVE VOLUMES      L**3       RATES FOR THIS TIME STEP      L**3/T
     ------------------                 ------------------------

           IN:                                      IN:
           ---                                      ---
        INFILTRATION =    35817978.6711          INFILTRATION =           6.6524

          OUT:                                     OUT:
          ----                                     ----
              UZF ET =    11107781.3999                UZF ET =          25.2083
        UZF RECHARGE =       73224.0000          UZF RECHARGE =       0.0000E+00

            IN - OUT =    24636973.2712              IN - OUT =         -18.5559

          STORAGE:                                 STORAGE:
          --------                                 --------
      STORAGE CHANGE =    24636973.0018        STORAGE CHANGE =         -18.5559

 PERCENT DISCREPANCY IS DIFFERENCE BETWEEN IN-OUT MINUS CHANGE IN STORAGE
 DIVIDED BY THE AVERAGE OF IN AND OUT TIMES 100

 PERCENT DISCREPANCY =           0.00     PERCENT DISCREPANCY =           0.00






 

            AG WELLS      PERIOD    5   STEP   2
 AG WELL      1   LAYER   1   ROW     6   COL     4   RATE   -1.853414E-02
 AG WELL      2   LAYER   1   ROW     6   COL     5   RATE   -1.853414E-02
 AG WELL      3   LAYER   1   ROW     7   COL     4   RATE   -1.853414E-02
 AG WELL      4   LAYER   1   ROW     7   COL     5   RATE   -1.853414E-02
 AG WELL      5   LAYER   1   ROW     8   COL     4   RATE   -1.853414E-02
 AG WELL      6   LAYER   1   ROW     8   COL     5   RATE   -1.853414E-02
 
 

   DIVERSION SEGMENTS     PERIOD    5   STEP   2
 SEGMENT      9   RATE     2.24482    
 
 

        SW IRRIGATION     PERIOD    5   STEP   2
 SEGMENT      9   ROW     6   COL     4   RATE    0.355609    
 SEGMENT      9   ROW     6   COL     5   RATE    0.355609    
 SEGMENT      9   ROW     7   COL     4   RATE    0.355609    
 SEGMENT      9   ROW     7   COL     5   RATE    0.355609    
 SEGMENT      9   ROW     8   COL     4   RATE    0.355609    
 SEGMENT      9   ROW     8   COL     5   RATE    0.355609    
 
 

        GW IRRIGATION     PERIOD    5   STEP   2
 AG WELL      1   ROW     6   COL     4   RATE    1.853415E-02
 AG WELL      2   ROW     6   COL     5   RATE    1.853415E-02
 AG WELL      3   ROW     7   COL     4   RATE    1.853415E-02
 AG WELL      4   ROW     7   COL     5   RATE    1.853415E-02
 AG WELL      5   ROW     8   COL     4   RATE    1.853415E-02
 AG WELL      6   ROW     8   COL     5   RATE    1.853415E-02
 
1
  VOLUMETRIC BUDGET FOR AGRICULTURAL FIELDS AT  END OF TIME STEP    2, STRESS PERIOD   5
  ------------------------------------------------------------------------------

     CUMULATIVE VOLUMES      L**3       RATES FOR THIS TIME STEP      L**3/T
     ------------------                 ------------------------

           IN:                                      IN:
           ---                                      ---
               AG WELLS  =        9748.9600                 AG WELLS  =           0.1112
      DIVERSION SEGMENTS =      196795.6250        DIVERSION SEGMENTS =           2.2448
           GW IRRIGATION =           0.0000             GW IRRIGATION =           0.0000
           SW IRRIGATION =           0.0000             SW IRRIGATION =           0.0000
        SYSTEM LOSSES GW =           0.0000          SYSTEM LOSSES GW =           0.0000
        SYSTEM LOSSES SW =           0.0000          SYSTEM LOSSES SW =           0.0000

                TOTAL IN =      206544.5781                  TOTAL IN =           2.3560

          OUT:                                     OUT:
          ----                                     ----
               AG WELLS  =           0.0000                 AG WELLS  =           0.0000
      DIVERSION SEGMENTS =           0.0000        DIVERSION SEGMENTS =           0.0000
           GW IRRIGATION =        9748.9600             GW IRRIGATION =           0.1112
           SW IRRIGATION =      196799.5469             SW IRRIGATION =           2.2449
        SYSTEM LOSSES GW =           0.0000          SYSTEM LOSSES GW =           0.0000
        SYSTEM LOSSES SW =           0.0000          SYSTEM LOSSES SW =           0.0000

               TOTAL OUT =      206548.5000                 TOTAL OUT =           2.3561

                IN - OUT =          -3.9219                  IN - OUT =      -4.4823E-05

     PERCENT DISCREPANCY =          -0.00         PERCENT DISCREPANCY =          -0.00



1
  VOLUMETRIC BUDGET FOR ENTIRE MODEL AT END OF TIME STEP    2, STRESS PERIOD   5
  ------------------------------------------------------------------------------

     CUMULATIVE VOLUMES      L**3       RATES FOR THIS TIME STEP      L**3/T
     ------------------                 ------------------------

           IN:                                      IN:
           ---                                      ---
             STORAGE     =     4842568.5000               STORAGE     =           2.8114
       CONSTANT HEAD     =           0.0000         CONSTANT HEAD     =           0.0000
     HEAD DEP BOUNDS     =     2328828.0000       HEAD DEP BOUNDS     =           0.2857
      STREAM LEAKAGE     =    97883608.0000        STREAM LEAKAGE     =          11.3440
        UZF RECHARGE     =       73223.9531          UZF RECHARGE     =           0.0000
               GW ET     =           0.0000                 GW ET     =           0.0000
     SURFACE LEAKAGE     =           0.0000       SURFACE LEAKAGE     =           0.0000
           AG WELLS      =           0.0000             AG WELLS      =           0.0000

                TOTAL IN =   105128232.0000                  TOTAL IN =          14.4412

          OUT:                                     OUT:
          ----                                     ----
             STORAGE     =    18252010.0000               STORAGE     =           1.2046
       CONSTANT HEAD     =           0.0000         CONSTANT HEAD     =           0.0000
     HEAD DEP BOUNDS     =     2368220.2500       HEAD DEP BOUNDS     =           0.2943
      STREAM LEAKAGE     =    84502040.0000        STREAM LEAKAGE     =          12.8304
        UZF RECHARGE     =           0.0000          UZF RECHARGE     =           0.0000
               GW ET     =       1.2500E-05                 GW ET     =       9.7659E-11
     SURFACE LEAKAGE     =           0.0000       SURFACE LEAKAGE     =           0.0000
           AG WELLS      =        9748.9600             AG WELLS      =           0.1112

               TOTAL OUT =   105132024.0000                 TOTAL OUT =          14.4405

                IN - OUT =       -3792.0000                  IN - OUT =       6.8188E-04

     PERCENT DISCREPANCY =          -0.00         PERCENT DISCREPANCY =           0.00






         TIME SUMMARY AT END OF TIME STEP    2 IN STRESS PERIOD    5
                    SECONDS     MINUTES      HOURS       DAYS        YEARS
                    -----------------------------------------------------------
   TIME STEP LENGTH  87667.      1461.1      24.352      1.0147     2.77799E-03
 STRESS PERIOD TIME 1.75333E+05  2922.2      48.704      2.0293     5.55598E-03
         TOTAL TIME 8.15173E+06 1.35862E+05  2264.4      94.349     0.25831    
1
 
 SOLVING FOR HEAD 
                                                   Max.-Head-Change                         Max.-Flux-Residual
  Residual-Control   Outer-Iter.   Inner-Iter.     Column Row Layer    Maximum-Head-Change  Column Row Layer    Maximum-Flux-Residual          L2-NORM 
          0                 1           2             2   13     1      -0.1003496814E-01       4   13    1        -0.5711732449E+00      0.1039079253E+01
          0                 2           2             4    7     1      -0.3432319199E-02       5    6    1        -0.1858812485E+00      0.4575810194E+00
          0                 3           2             4    7     1       0.2824094671E-02       5    6    1         0.1560234350E+00      0.3847986840E+00
          0                 4           1             4   13     1      -0.6777248349E-04       4   13    1        -0.4103200063E-02      0.7284023266E-02

    ------------------------------------------------
       NWT REQUIRED            4 OUTER ITERATIONS 
       AND A TOTAL OF          7 INNER ITERATIONS.
    ------------------------------------------------

 OUTPUT CONTROL FOR STRESS PERIOD    5   TIME STEP    3
    PRINT BUDGET
    SAVE BUDGET
 UBDSV1 SAVING "         STORAGE" ON UNIT 102 AT TIME STEP  3, STRESS PERIOD   5
 UBDSV2 SAVING "   CONSTANT HEAD" ON UNIT 102 AT TIME STEP  3, STRESS PERIOD   5
 UBDSV1 SAVING "FLOW RIGHT FACE " ON UNIT 102 AT TIME STEP  3, STRESS PERIOD   5
 UBDSV1 SAVING "FLOW FRONT FACE " ON UNIT 102 AT TIME STEP  3, STRESS PERIOD   5

  HEAD DEP BOUNDS   PERIOD    5   STEP     3
 BOUNDARY      1   LAYER   1   ROW    13   COL     1   RATE   -0.294062    
 BOUNDARY      2   LAYER   1   ROW    14   COL     9   RATE    0.285738    



 STREAM LISTING     PERIOD      5   STEP        3

 LAYER ROW COL. STREAM  RCH.  FLOW INTO     FLOW TO   FLOW OUT OF   OVRLND.     DIRECT     STREAM       STREAM     STREAM     STREAM   STREAMBED  STREAMBED
                SEG.NO.  NO.  STRM. RCH.    AQUIFER    STRM. RCH.    RUNOFF     PRECIP       ET          HEAD       DEPTH      WIDTH   CONDCTNC.   GRADIENT

   1    1    1     1     1    2.1000E+01  2.2591E-01   2.0774E+01  0.000E+00  0.000E+00  0.000E+00  1.09416E+03  1.115E+00  1.220E+01  5.490E-02  1.372E+00
   1    2    2     1     2    2.0774E+01  3.4916E-01   2.0425E+01  0.000E+00  0.000E+00  0.000E+00  1.08917E+03  1.110E+00  1.214E+01  8.495E-02  1.370E+00
   1    3    3     1     3    2.0425E+01  2.9709E-01   2.0128E+01  0.000E+00  0.000E+00  0.000E+00  1.08352E+03  1.105E+00  1.206E+01  7.238E-02  1.368E+00
   1    3    4     1     4    2.0128E+01  2.7299E-01   1.9855E+01  0.000E+00  0.000E+00  0.000E+00  1.07851E+03  1.100E+00  1.200E+01  6.659E-02  1.367E+00
   1    4    5     2     1    1.7855E+01  3.1056E-01   1.7544E+01  0.000E+00  0.000E+00  0.000E+00  1.07292E+03  9.816E-01  1.200E+01  7.800E-02  1.327E+00
   1    5    6     2     2    1.7544E+01  2.3834E-01   1.7306E+01  0.000E+00  0.000E+00  0.000E+00  1.06748E+03  9.724E-01  1.200E+01  6.000E-02  1.324E+00
   1    6    6     2     3    1.7306E+01  2.3786E-01   1.7068E+01  0.000E+00  0.000E+00  0.000E+00  1.06276E+03  9.644E-01  1.200E+01  6.000E-02  1.321E+00
   1    7    6     2     4    1.7068E+01  2.3738E-01   1.6831E+01  0.000E+00  0.000E+00  0.000E+00  1.05803E+03  9.564E-01  1.200E+01  6.000E-02  1.319E+00
   1    8    6     2     5    1.6831E+01  2.3690E-01   1.6594E+01  0.000E+00  0.000E+00  0.000E+00  1.05331E+03  9.483E-01  1.200E+01  6.000E-02  1.316E+00
   1    3    5     3     1    2.0000E+00  2.8252E-01   1.7175E+00  0.000E+00  0.000E+00  0.000E+00  1.07555E+03  1.909E+00  9.636E+00  7.227E-02  1.955E+00
   1    3    6     3     2    1.7175E+00  2.4905E-01   1.4684E+00  0.000E+00  0.000E+00  0.000E+00  1.07264E+03  1.727E+00  8.909E+00  6.682E-02  1.864E+00
   1    3    7     3     3    1.4684E+00  1.9718E-01   1.2712E+00  0.000E+00  0.000E+00  0.000E+00  1.06987E+03  1.555E+00  8.218E+00  5.547E-02  1.777E+00
   1    4    8     3     4    1.2712E+00  2.2567E-01   1.0456E+00  0.000E+00  0.000E+00  0.000E+00  1.06682E+03  1.364E+00  7.455E+00  6.709E-02  1.682E+00
   1    5    8     3     5    1.0456E+00  1.5790E-01   8.8768E-01  0.000E+00  0.000E+00  0.000E+00  1.06362E+03  1.164E+00  6.655E+00  4.991E-02  1.582E+00
   1    6    8     3     6    8.8768E-01  5.5980E-02   8.3170E-01  0.000E+00  0.000E+00  0.000E+00  1.06158E+03  1.036E+00  6.145E+00  1.844E-02  1.518E+00
   1    5   10     4     1    1.0000E+01  9.0919E-02   9.9091E+00  0.000E+00  0.000E+00  0.000E+00  1.07836E+03  6.368E-01  1.000E+01  2.500E-02  1.212E+00
   1    5    9     4     2    9.9091E+00  1.8158E-01   9.7275E+00  0.000E+00  0.000E+00  0.000E+00  1.07154E+03  6.315E-01  1.000E+01  5.000E-02  1.211E+00
   1    6    8     4     3    9.7275E+00  1.2689E-01   9.6006E+00  0.000E+00  0.000E+00  0.000E+00  1.06381E+03  6.256E-01  1.000E+01  3.500E-02  1.209E+00
   1    6    8     5     1    1.0432E+01  2.2686E-01   1.0205E+01  0.000E+00  0.000E+00  0.000E+00  1.05868E+03  6.790E-01  1.542E+01  6.166E-02  1.226E+00
   1    7    7     5     2    1.0205E+01  2.7894E-01   9.9265E+00  0.000E+00  0.000E+00  0.000E+00  1.05417E+03  6.732E-01  1.519E+01  7.594E-02  1.224E+00
   1    8    7     5     3    9.9265E+00  1.9221E-01   9.7343E+00  0.000E+00  0.000E+00  0.000E+00  1.04992E+03  6.676E-01  1.497E+01  5.241E-02  1.223E+00
   1    8    6     5     4    9.7343E+00  1.3577E-01   9.5985E+00  0.000E+00  0.000E+00  0.000E+00  1.04691E+03  6.637E-01  1.482E+01  3.706E-02  1.221E+00
   1    9    6     6     1    2.3535E+01  2.5080E-01   2.3284E+01  0.000E+00  0.000E+00  0.000E+00  1.04391E+03  1.180E+00  1.200E+01  6.000E-02  1.393E+00
   1   10    7     6     2    2.3284E+01  2.5035E-01   2.3034E+01  0.000E+00  0.000E+00  0.000E+00  1.03935E+03  1.173E+00  1.200E+01  6.000E-02  1.391E+00
   1   11    7     6     3    2.3034E+01  2.4990E-01   2.2784E+01  0.000E+00  0.000E+00  0.000E+00  1.03480E+03  1.165E+00  1.200E+01  6.000E-02  1.388E+00
   1   12    7     6     4    2.2784E+01  2.4944E-01   2.2534E+01  0.000E+00  0.000E+00  0.000E+00  1.03025E+03  1.157E+00  1.200E+01  6.000E-02  1.386E+00
   1   13    7     6     5    2.2534E+01 -1.6793E-02   2.2551E+01  0.000E+00  0.000E+00  0.000E+00  1.02706E+03  1.154E+00  1.200E+01  2.400E-01 -2.332E-02
   1   14    9     7     1    1.5000E+02  1.3355E+00   1.4866E+02  0.000E+00  0.000E+00  0.000E+00  1.03987E+03  2.288E+00  5.529E+01  5.593E-01  7.959E-01
   1   13    8     7     2    1.4866E+02  1.8266E+00   1.4684E+02  0.000E+00  0.000E+00  0.000E+00  1.03478E+03  2.279E+00  5.526E+01  6.148E-01  9.904E-01
   1   13    7     7     3    1.4684E+02  1.4280E+00   1.4541E+02  0.000E+00  0.000E+00  0.000E+00  1.02969E+03  2.271E+00  5.522E+01  5.585E-01  8.523E-01
   1   13    6     8     1    1.6796E+02  8.4624E-01   1.6711E+02  0.000E+00  0.000E+00  0.000E+00  1.02481E+03  2.937E+00  4.259E+01  4.340E-01  6.499E-01
   1   13    5     8     2    1.6711E+02  9.5653E-02   1.6702E+02  0.000E+00  0.000E+00  0.000E+00  1.01856E+03  2.934E+00  4.255E+01  4.336E-01  7.354E-02
   1   13    4     8     3    1.6702E+02 -3.0939E+00   1.7011E+02  0.000E+00  0.000E+00  0.000E+00  1.01232E+03  2.944E+00  4.269E+01  4.350E+00 -2.371E-01
   1   13    3     8     4    1.7011E+02 -4.2009E+00   1.7431E+02  0.000E+00  0.000E+00  0.000E+00  1.00609E+03  2.968E+00  4.303E+01  4.385E+00 -3.193E-01
   1   13    2     8     5    1.7431E+02 -3.1270E+00   1.7744E+02  0.000E+00  0.000E+00  0.000E+00  9.99866E+02  2.991E+00  4.338E+01  4.420E+00 -2.358E-01
   1   13    1     8     6    1.7744E+02 -2.2803E+00   1.7972E+02  0.000E+00  0.000E+00  0.000E+00  9.94884E+02  3.009E+00  4.362E+01  2.667E+00 -2.850E-01
   1    8    6     9     1    2.6574E+00  0.0000E+00   2.6574E+00  0.000E+00  0.000E+00  0.000E+00  1.07972E+03  9.745E-01  4.000E+00  0.000E+00  1.325E+00
   1    8    5     9     2    2.6574E+00  0.0000E+00   2.6574E+00  0.000E+00  0.000E+00  0.000E+00  1.07922E+03  9.745E-01  4.000E+00  0.000E+00  1.325E+00



 UBDSV3 SAVING "           GW ET" ON UNIT  61 AT TIME STEP  3, STRESS PERIOD   5
 UBDSV3 SAVING "    UZF RECHARGE" ON UNIT  61 AT TIME STEP  3, STRESS PERIOD   5
 UBDSV3 SAVING " SURFACE LEAKAGE" ON UNIT  61 AT TIME STEP  3, STRESS PERIOD   5
 UBDSV3 SAVING "       HORT+DUNN" ON UNIT  61 AT TIME STEP  3, STRESS PERIOD   5
 UBDSV3 SAVING "  STORAGE CHANGE" ON UNIT  61 AT TIME STEP  3, STRESS PERIOD   5


UNSATURATED ZONE PACKAGE VOLUMETRIC BUDGET FOR  TIME STEP     3 STRESS PERIOD    5
  ------------------------------------------------------------------------------



     CUMULATIVE VOLUMES      L**3       RATES FOR THIS TIME STEP      L**3/T
     ------------------                 ------------------------

           IN:                                      IN:
           ---                                      ---
        INFILTRATION =    36437339.1038          INFILTRATION =           7.0649

          OUT:                                     OUT:
          ----                                     ----
              UZF ET =    13115064.7095                UZF ET =          22.8968
        UZF RECHARGE =       73224.0000          UZF RECHARGE =       0.0000E+00

            IN - OUT =    23249050.3943              IN - OUT =         -15.8318

          STORAGE:                                 STORAGE:
          --------                                 --------
      STORAGE CHANGE =    23249050.0920        STORAGE CHANGE =         -15.8318

 PERCENT DISCREPANCY IS DIFFERENCE BETWEEN IN-OUT MINUS CHANGE IN STORAGE
 DIVIDED BY THE AVERAGE OF IN AND OUT TIMES 100

 PERCENT DISCREPANCY =           0.00     PERCENT DISCREPANCY =           0.00






 

            AG WELLS      PERIOD    5   STEP   3
 AG WELL      1   LAYER   1   ROW     6   COL     4   RATE   -3.454169E-02
 AG WELL      2   LAYER   1   ROW     6   COL     5   RATE   -3.454169E-02
 AG WELL      3   LAYER   1   ROW     7   COL     4   RATE   -3.454169E-02
 AG WELL      4   LAYER   1   ROW     7   COL     5   RATE   -3.454169E-02
 AG WELL      5   LAYER   1   ROW     8   COL     4   RATE   -3.454169E-02
 AG WELL      6   LAYER   1   ROW     8   COL     5   RATE   -3.454169E-02
 
 

   DIVERSION SEGMENTS     PERIOD    5   STEP   3
 SEGMENT      9   RATE     2.65740    
 
 

        SW IRRIGATION     PERIOD    5   STEP   3
 SEGMENT      9   ROW     6   COL     4   RATE    0.408366    
 SEGMENT      9   ROW     6   COL     5   RATE    0.408366    
 SEGMENT      9   ROW     7   COL     4   RATE    0.408366    
 SEGMENT      9   ROW     7   COL     5   RATE    0.408366    
 SEGMENT      9   ROW     8   COL     4   RATE    0.408366    
 SEGMENT      9   ROW     8   COL     5   RATE    0.408366    
 
 

        GW IRRIGATION     PERIOD    5   STEP   3
 AG WELL      1   ROW     6   COL     4   RATE    3.454169E-02
 AG WELL      2   ROW     6   COL     5   RATE    3.454169E-02
 AG WELL      3   ROW     7   COL     4   RATE    3.454169E-02
 AG WELL      4   ROW     7   COL     5   RATE    3.454169E-02
 AG WELL      5   ROW     8   COL     4   RATE    3.454169E-02
 AG WELL      6   ROW     8   COL     5   RATE    3.454169E-02
 
1
  VOLUMETRIC BUDGET FOR AGRICULTURAL FIELDS AT  END OF TIME STEP    3, STRESS PERIOD   5
  ------------------------------------------------------------------------------

     CUMULATIVE VOLUMES      L**3       RATES FOR THIS TIME STEP      L**3/T
     ------------------                 ------------------------

           IN:                                      IN:
           ---                                      ---
               AG WELLS  =       27917.8867                 AG WELLS  =           0.2073
      DIVERSION SEGMENTS =      429760.9375        DIVERSION SEGMENTS =           2.6574
           GW IRRIGATION =           0.0000             GW IRRIGATION =           0.0000
           SW IRRIGATION =           0.0000             SW IRRIGATION =           0.0000
        SYSTEM LOSSES GW =           0.0000          SYSTEM LOSSES GW =           0.0000
        SYSTEM LOSSES SW =           0.0000          SYSTEM LOSSES SW =           0.0000

                TOTAL IN =      457678.8125                  TOTAL IN =           2.8646

          OUT:                                     OUT:
          ----                                     ----
               AG WELLS  =           0.0000                 AG WELLS  =           0.0000
      DIVERSION SEGMENTS =           0.0000        DIVERSION SEGMENTS =           0.0000
           GW IRRIGATION =       27917.8867             GW IRRIGATION =           0.2073
           SW IRRIGATION =      429769.5312             SW IRRIGATION =           2.6575
        SYSTEM LOSSES GW =           0.0000          SYSTEM LOSSES GW =           0.0000
        SYSTEM LOSSES SW =           0.0000          SYSTEM LOSSES SW =           0.0000

               TOTAL OUT =      457687.4062                 TOTAL OUT =           2.8647

                IN - OUT =          -8.5938                  IN - OUT =      -5.2929E-05

     PERCENT DISCREPANCY =          -0.00         PERCENT DISCREPANCY =          -0.00



1
  VOLUMETRIC BUDGET FOR ENTIRE MODEL AT END OF TIME STEP    3, STRESS PERIOD   5
  ------------------------------------------------------------------------------

     CUMULATIVE VOLUMES      L**3       RATES FOR THIS TIME STEP      L**3/T
     ------------------                 ------------------------

           IN:                                      IN:
           ---                                      ---
             STORAGE     =     5084615.0000               STORAGE     =           2.7610
       CONSTANT HEAD     =           0.0000         CONSTANT HEAD     =           0.0000
     HEAD DEP BOUNDS     =     2353877.7500       HEAD DEP BOUNDS     =           0.2857
      STREAM LEAKAGE     =    98877760.0000        STREAM LEAKAGE     =          11.3401
        UZF RECHARGE     =       73223.9531          UZF RECHARGE     =           0.0000
               GW ET     =           0.0000                 GW ET     =           0.0000
     SURFACE LEAKAGE     =           0.0000       SURFACE LEAKAGE     =           0.0000
           AG WELLS      =           0.0000             AG WELLS      =           0.0000

                TOTAL IN =   106389480.0000                  TOTAL IN =          14.3869

          OUT:                                     OUT:
          ----                                     ----
             STORAGE     =    18354164.0000               STORAGE     =           1.1652
       CONSTANT HEAD     =           0.0000         CONSTANT HEAD     =           0.0000
     HEAD DEP BOUNDS     =     2393999.7500       HEAD DEP BOUNDS     =           0.2941
      STREAM LEAKAGE     =    85617064.0000        STREAM LEAKAGE     =          12.7189
        UZF RECHARGE     =           0.0000          UZF RECHARGE     =           0.0000
               GW ET     =          52.1534                 GW ET     =       5.9491E-04
     SURFACE LEAKAGE     =           0.0000       SURFACE LEAKAGE     =           0.0000
           AG WELLS      =       27917.8867             AG WELLS      =           0.2073

               TOTAL OUT =   106393208.0000                 TOTAL OUT =          14.3861

                IN - OUT =       -3728.0000                  IN - OUT =       8.0681E-04

     PERCENT DISCREPANCY =          -0.00         PERCENT DISCREPANCY =           0.01






         TIME SUMMARY AT END OF TIME STEP    3 IN STRESS PERIOD    5
                    SECONDS     MINUTES      HOURS       DAYS        YEARS
                    -----------------------------------------------------------
   TIME STEP LENGTH  87667.      1461.1      24.352      1.0147     2.77799E-03
 STRESS PERIOD TIME 2.63000E+05  4383.3      73.056      3.0440     8.33397E-03
         TOTAL TIME 8.23939E+06 1.37323E+05  2288.7      95.363     0.26109    
1
 
 SOLVING FOR HEAD 
                                                   Max.-Head-Change                         Max.-Flux-Residual
  Residual-Control   Outer-Iter.   Inner-Iter.     Column Row Layer    Maximum-Head-Change  Column Row Layer    Maximum-Flux-Residual          L2-NORM 
          0                 1           2             4   13     1      -0.9365535188E-02       4   13    1        -0.5468548214E+00      0.1003300416E+01
          0                 2           2             4    7     1      -0.5514236077E-02       5    6    1        -0.2976953070E+00      0.7281680633E+00
          0                 3           2             4    7     1       0.5718963889E-02       5    6    1         0.3158471570E+00      0.7766800122E+00
          0                 4           2             4    7     1      -0.2228282946E-03       4    6    1        -0.1275165384E-01      0.3116934948E-01
          0                 5           1             4    7     1       0.4441247775E-05       4    6    1         0.2603882613E-03      0.6517089054E-03

    ------------------------------------------------
       NWT REQUIRED            5 OUTER ITERATIONS 
       AND A TOTAL OF          9 INNER ITERATIONS.
    ------------------------------------------------

 OUTPUT CONTROL FOR STRESS PERIOD    5   TIME STEP    4
    PRINT BUDGET
    SAVE BUDGET
 UBDSV1 SAVING "         STORAGE" ON UNIT 102 AT TIME STEP  4, STRESS PERIOD   5
 UBDSV2 SAVING "   CONSTANT HEAD" ON UNIT 102 AT TIME STEP  4, STRESS PERIOD   5
 UBDSV1 SAVING "FLOW RIGHT FACE " ON UNIT 102 AT TIME STEP  4, STRESS PERIOD   5
 UBDSV1 SAVING "FLOW FRONT FACE " ON UNIT 102 AT TIME STEP  4, STRESS PERIOD   5

  HEAD DEP BOUNDS   PERIOD    5   STEP     4
 BOUNDARY      1   LAYER   1   ROW    13   COL     1   RATE   -0.293854    
 BOUNDARY      2   LAYER   1   ROW    14   COL     9   RATE    0.285739    



 STREAM LISTING     PERIOD      5   STEP        4

 LAYER ROW COL. STREAM  RCH.  FLOW INTO     FLOW TO   FLOW OUT OF   OVRLND.     DIRECT     STREAM       STREAM     STREAM     STREAM   STREAMBED  STREAMBED
                SEG.NO.  NO.  STRM. RCH.    AQUIFER    STRM. RCH.    RUNOFF     PRECIP       ET          HEAD       DEPTH      WIDTH   CONDCTNC.   GRADIENT

   1    1    1     1     1    2.1000E+01  2.2591E-01   2.0774E+01  0.000E+00  0.000E+00  0.000E+00  1.09416E+03  1.115E+00  1.220E+01  5.490E-02  1.372E+00
   1    2    2     1     2    2.0774E+01  3.4916E-01   2.0425E+01  0.000E+00  0.000E+00  0.000E+00  1.08917E+03  1.110E+00  1.214E+01  8.495E-02  1.370E+00
   1    3    3     1     3    2.0425E+01  2.9709E-01   2.0128E+01  0.000E+00  0.000E+00  0.000E+00  1.08352E+03  1.105E+00  1.206E+01  7.238E-02  1.368E+00
   1    3    4     1     4    2.0128E+01  2.7299E-01   1.9855E+01  0.000E+00  0.000E+00  0.000E+00  1.07851E+03  1.100E+00  1.200E+01  6.659E-02  1.367E+00
   1    4    5     2     1    1.7855E+01  3.1056E-01   1.7544E+01  0.000E+00  0.000E+00  0.000E+00  1.07292E+03  9.816E-01  1.200E+01  7.800E-02  1.327E+00
   1    5    6     2     2    1.7544E+01  2.3834E-01   1.7306E+01  0.000E+00  0.000E+00  0.000E+00  1.06748E+03  9.724E-01  1.200E+01  6.000E-02  1.324E+00
   1    6    6     2     3    1.7306E+01  2.3786E-01   1.7068E+01  0.000E+00  0.000E+00  0.000E+00  1.06276E+03  9.644E-01  1.200E+01  6.000E-02  1.321E+00
   1    7    6     2     4    1.7068E+01  2.3738E-01   1.6831E+01  0.000E+00  0.000E+00  0.000E+00  1.05803E+03  9.564E-01  1.200E+01  6.000E-02  1.319E+00
   1    8    6     2     5    1.6831E+01  2.3690E-01   1.6594E+01  0.000E+00  0.000E+00  0.000E+00  1.05331E+03  9.483E-01  1.200E+01  6.000E-02  1.316E+00
   1    3    5     3     1    2.0000E+00  2.8252E-01   1.7175E+00  0.000E+00  0.000E+00  0.000E+00  1.07555E+03  1.909E+00  9.636E+00  7.227E-02  1.955E+00
   1    3    6     3     2    1.7175E+00  2.4905E-01   1.4684E+00  0.000E+00  0.000E+00  0.000E+00  1.07264E+03  1.727E+00  8.909E+00  6.682E-02  1.864E+00
   1    3    7     3     3    1.4684E+00  1.9718E-01   1.2712E+00  0.000E+00  0.000E+00  0.000E+00  1.06987E+03  1.555E+00  8.218E+00  5.547E-02  1.777E+00
   1    4    8     3     4    1.2712E+00  2.2567E-01   1.0456E+00  0.000E+00  0.000E+00  0.000E+00  1.06682E+03  1.364E+00  7.455E+00  6.709E-02  1.682E+00
   1    5    8     3     5    1.0456E+00  1.5790E-01   8.8768E-01  0.000E+00  0.000E+00  0.000E+00  1.06362E+03  1.164E+00  6.655E+00  4.991E-02  1.582E+00
   1    6    8     3     6    8.8768E-01  5.5980E-02   8.3170E-01  0.000E+00  0.000E+00  0.000E+00  1.06158E+03  1.036E+00  6.145E+00  1.844E-02  1.518E+00
   1    5   10     4     1    1.0000E+01  9.0919E-02   9.9091E+00  0.000E+00  0.000E+00  0.000E+00  1.07836E+03  6.368E-01  1.000E+01  2.500E-02  1.212E+00
   1    5    9     4     2    9.9091E+00  1.8158E-01   9.7275E+00  0.000E+00  0.000E+00  0.000E+00  1.07154E+03  6.315E-01  1.000E+01  5.000E-02  1.211E+00
   1    6    8     4     3    9.7275E+00  1.2689E-01   9.6006E+00  0.000E+00  0.000E+00  0.000E+00  1.06381E+03  6.256E-01  1.000E+01  3.500E-02  1.209E+00
   1    6    8     5     1    1.0432E+01  2.2686E-01   1.0205E+01  0.000E+00  0.000E+00  0.000E+00  1.05868E+03  6.790E-01  1.542E+01  6.166E-02  1.226E+00
   1    7    7     5     2    1.0205E+01  2.7894E-01   9.9265E+00  0.000E+00  0.000E+00  0.000E+00  1.05417E+03  6.732E-01  1.519E+01  7.594E-02  1.224E+00
   1    8    7     5     3    9.9265E+00  1.9221E-01   9.7343E+00  0.000E+00  0.000E+00  0.000E+00  1.04992E+03  6.676E-01  1.497E+01  5.241E-02  1.223E+00
   1    8    6     5     4    9.7343E+00  1.3577E-01   9.5985E+00  0.000E+00  0.000E+00  0.000E+00  1.04691E+03  6.637E-01  1.482E+01  3.706E-02  1.221E+00
   1    9    6     6     1    2.2639E+01  2.4880E-01   2.2390E+01  0.000E+00  0.000E+00  0.000E+00  1.04387E+03  1.147E+00  1.200E+01  6.000E-02  1.382E+00
   1   10    7     6     2    2.2390E+01  2.4835E-01   2.2142E+01  0.000E+00  0.000E+00  0.000E+00  1.03932E+03  1.139E+00  1.200E+01  6.000E-02  1.380E+00
   1   11    7     6     3    2.2142E+01  2.4789E-01   2.1894E+01  0.000E+00  0.000E+00  0.000E+00  1.03477E+03  1.131E+00  1.200E+01  6.000E-02  1.377E+00
   1   12    7     6     4    2.1894E+01  2.4743E-01   2.1647E+01  0.000E+00  0.000E+00  0.000E+00  1.03021E+03  1.124E+00  1.200E+01  6.000E-02  1.375E+00
   1   13    7     6     5    2.1647E+01 -2.4817E-02   2.1671E+01  0.000E+00  0.000E+00  0.000E+00  1.02703E+03  1.120E+00  1.200E+01  2.400E-01 -3.447E-02
   1   14    9     7     1    1.5000E+02  1.3355E+00   1.4866E+02  0.000E+00  0.000E+00  0.000E+00  1.03987E+03  2.288E+00  5.529E+01  5.593E-01  7.959E-01
   1   13    8     7     2    1.4866E+02  1.8264E+00   1.4684E+02  0.000E+00  0.000E+00  0.000E+00  1.03478E+03  2.279E+00  5.526E+01  6.148E-01  9.903E-01
   1   13    7     7     3    1.4684E+02  1.4280E+00   1.4541E+02  0.000E+00  0.000E+00  0.000E+00  1.02969E+03  2.271E+00  5.522E+01  5.585E-01  8.524E-01
   1   13    6     8     1    1.6708E+02  8.4172E-01   1.6624E+02  0.000E+00  0.000E+00  0.000E+00  1.02481E+03  2.930E+00  4.249E+01  4.330E-01  6.480E-01
   1   13    5     8     2    1.6624E+02  9.2780E-02   1.6615E+02  0.000E+00  0.000E+00  0.000E+00  1.01855E+03  2.927E+00  4.245E+01  4.325E-01  7.150E-02
   1   13    4     8     3    1.6615E+02 -3.0753E+00   1.6922E+02  0.000E+00  0.000E+00  0.000E+00  1.01231E+03  2.937E+00  4.259E+01  4.340E+00 -2.362E-01
   1   13    3     8     4    1.6922E+02 -4.1809E+00   1.7340E+02  0.000E+00  0.000E+00  0.000E+00  1.00609E+03  2.961E+00  4.293E+01  4.375E+00 -3.186E-01
   1   13    2     8     5    1.7340E+02 -3.1090E+00   1.7651E+02  0.000E+00  0.000E+00  0.000E+00  9.99859E+02  2.984E+00  4.327E+01  4.409E+00 -2.350E-01
   1   13    1     8     6    1.7651E+02 -2.2794E+00   1.7879E+02  0.000E+00  0.000E+00  0.000E+00  9.94876E+02  3.001E+00  4.352E+01  2.661E+00 -2.856E-01
   1    8    6     9     1    3.5531E+00  0.0000E+00   3.5531E+00  0.000E+00  0.000E+00  0.000E+00  1.07997E+03  1.218E+00  4.000E+00  0.000E+00  1.406E+00
   1    8    5     9     2    3.5531E+00  0.0000E+00   3.5531E+00  0.000E+00  0.000E+00  0.000E+00  1.07947E+03  1.218E+00  4.000E+00  0.000E+00  1.406E+00



 UBDSV3 SAVING "           GW ET" ON UNIT  61 AT TIME STEP  4, STRESS PERIOD   5
 UBDSV3 SAVING "    UZF RECHARGE" ON UNIT  61 AT TIME STEP  4, STRESS PERIOD   5
 UBDSV3 SAVING " SURFACE LEAKAGE" ON UNIT  61 AT TIME STEP  4, STRESS PERIOD   5
 UBDSV3 SAVING "       HORT+DUNN" ON UNIT  61 AT TIME STEP  4, STRESS PERIOD   5
 UBDSV3 SAVING "  STORAGE CHANGE" ON UNIT  61 AT TIME STEP  4, STRESS PERIOD   5


UNSATURATED ZONE PACKAGE VOLUMETRIC BUDGET FOR  TIME STEP     4 STRESS PERIOD    5
  ------------------------------------------------------------------------------



     CUMULATIVE VOLUMES      L**3       RATES FOR THIS TIME STEP      L**3/T
     ------------------                 ------------------------

           IN:                                      IN:
           ---                                      ---
        INFILTRATION =    37135227.5481          INFILTRATION =           7.9607

          OUT:                                     OUT:
          ----                                     ----
              UZF ET =    14540191.0815                UZF ET =          16.2562
        UZF RECHARGE =       73224.0000          UZF RECHARGE =       0.0000E+00

            IN - OUT =    22521812.4666              IN - OUT =          -8.2955

          STORAGE:                                 STORAGE:
          --------                                 --------
      STORAGE CHANGE =    22521812.1609        STORAGE CHANGE =          -8.2955

 PERCENT DISCREPANCY IS DIFFERENCE BETWEEN IN-OUT MINUS CHANGE IN STORAGE
 DIVIDED BY THE AVERAGE OF IN AND OUT TIMES 100

 PERCENT DISCREPANCY =           0.00     PERCENT DISCREPANCY =           0.00






 

            AG WELLS      PERIOD    5   STEP   4
 AG WELL      1   LAYER   1   ROW     6   COL     4   RATE   -1.928806E-04
 AG WELL      2   LAYER   1   ROW     6   COL     5   RATE   -1.928806E-04
 AG WELL      3   LAYER   1   ROW     7   COL     4   RATE   -1.928806E-04
 AG WELL      4   LAYER   1   ROW     7   COL     5   RATE   -1.928806E-04
 AG WELL      5   LAYER   1   ROW     8   COL     4   RATE   -1.928806E-04
 AG WELL      6   LAYER   1   ROW     8   COL     5   RATE   -1.928806E-04
 
 

   DIVERSION SEGMENTS     PERIOD    5   STEP   4
 SEGMENT      9   RATE     3.55313    
 
 

        SW IRRIGATION     PERIOD    5   STEP   4
 SEGMENT      9   ROW     6   COL     4   RATE    0.592008    
 SEGMENT      9   ROW     6   COL     5   RATE    0.592008    
 SEGMENT      9   ROW     7   COL     4   RATE    0.592008    
 SEGMENT      9   ROW     7   COL     5   RATE    0.592008    
 SEGMENT      9   ROW     8   COL     4   RATE    0.592008    
 SEGMENT      9   ROW     8   COL     5   RATE    0.592008    
 
 

        GW IRRIGATION     PERIOD    5   STEP   4
 AG WELL      1   ROW     6   COL     4   RATE    1.928806E-04
 AG WELL      2   ROW     6   COL     5   RATE    1.928806E-04
 AG WELL      3   ROW     7   COL     4   RATE    1.928806E-04
 AG WELL      4   ROW     7   COL     5   RATE    1.928806E-04
 AG WELL      5   ROW     8   COL     4   RATE    1.928806E-04
 AG WELL      6   ROW     8   COL     5   RATE    1.928806E-04
 
1
  VOLUMETRIC BUDGET FOR AGRICULTURAL FIELDS AT  END OF TIME STEP    4, STRESS PERIOD   5
  ------------------------------------------------------------------------------

     CUMULATIVE VOLUMES      L**3       RATES FOR THIS TIME STEP      L**3/T
     ------------------                 ------------------------

           IN:                                      IN:
           ---                                      ---
               AG WELLS  =       28019.3418                 AG WELLS  =       1.1573E-03
      DIVERSION SEGMENTS =      741252.3125        DIVERSION SEGMENTS =           3.5531
           GW IRRIGATION =           0.0000             GW IRRIGATION =           0.0000
           SW IRRIGATION =           0.0000             SW IRRIGATION =           0.0000
        SYSTEM LOSSES GW =           0.0000          SYSTEM LOSSES GW =           0.0000
        SYSTEM LOSSES SW =           0.0000          SYSTEM LOSSES SW =           0.0000

                TOTAL IN =      769271.6250                  TOTAL IN =           3.5543

          OUT:                                     OUT:
          ----                                     ----
               AG WELLS  =           0.0000                 AG WELLS  =           0.0000
      DIVERSION SEGMENTS =           0.0000        DIVERSION SEGMENTS =           0.0000
           GW IRRIGATION =       28019.3418             GW IRRIGATION =       1.1573E-03
           SW IRRIGATION =      741267.1250             SW IRRIGATION =           3.5532
        SYSTEM LOSSES GW =           0.0000          SYSTEM LOSSES GW =           0.0000
        SYSTEM LOSSES SW =           0.0000          SYSTEM LOSSES SW =           0.0000

               TOTAL OUT =      769286.4375                 TOTAL OUT =           3.5544

                IN - OUT =         -14.8125                  IN - OUT =      -7.1049E-05

     PERCENT DISCREPANCY =          -0.00         PERCENT DISCREPANCY =          -0.00



1
  VOLUMETRIC BUDGET FOR ENTIRE MODEL AT END OF TIME STEP    4, STRESS PERIOD   5
  ------------------------------------------------------------------------------

     CUMULATIVE VOLUMES      L**3       RATES FOR THIS TIME STEP      L**3/T
     ------------------                 ------------------------

           IN:                                      IN:
           ---                                      ---
             STORAGE     =     5314664.0000               STORAGE     =           2.6241
       CONSTANT HEAD     =           0.0000         CONSTANT HEAD     =           0.0000
     HEAD DEP BOUNDS     =     2378927.5000       HEAD DEP BOUNDS     =           0.2857
      STREAM LEAKAGE     =    99870552.0000        STREAM LEAKAGE     =          11.3246
        UZF RECHARGE     =       73223.9531          UZF RECHARGE     =           0.0000
               GW ET     =           0.0000                 GW ET     =           0.0000
     SURFACE LEAKAGE     =           0.0000       SURFACE LEAKAGE     =           0.0000
           AG WELLS      =           0.0000             AG WELLS      =           0.0000

                TOTAL IN =   107637368.0000                  TOTAL IN =          14.2345

          OUT:                                     OUT:
          ----                                     ----
             STORAGE     =    18459286.0000               STORAGE     =           1.1991
       CONSTANT HEAD     =           0.0000         CONSTANT HEAD     =           0.0000
     HEAD DEP BOUNDS     =     2419761.0000       HEAD DEP BOUNDS     =           0.2939
      STREAM LEAKAGE     =    86727752.0000        STREAM LEAKAGE     =          12.6694
        UZF RECHARGE     =           0.0000          UZF RECHARGE     =           0.0000
               GW ET     =        6268.9009                 GW ET     =       7.0913E-02
     SURFACE LEAKAGE     =           0.0000       SURFACE LEAKAGE     =           0.0000
           AG WELLS      =       28019.3418             AG WELLS      =       1.1573E-03

               TOTAL OUT =   107641088.0000                 TOTAL OUT =          14.2345

                IN - OUT =       -3720.0000                  IN - OUT =       3.2425E-05

     PERCENT DISCREPANCY =          -0.00         PERCENT DISCREPANCY =           0.00






         TIME SUMMARY AT END OF TIME STEP    4 IN STRESS PERIOD    5
                    SECONDS     MINUTES      HOURS       DAYS        YEARS
                    -----------------------------------------------------------
   TIME STEP LENGTH  87667.      1461.1      24.352      1.0147     2.77799E-03
 STRESS PERIOD TIME 3.50667E+05  5844.4      97.407      4.0586     1.11120E-02
         TOTAL TIME 8.32706E+06 1.38784E+05  2313.1      96.378     0.26387    
1
 
 SOLVING FOR HEAD 
                                                   Max.-Head-Change                         Max.-Flux-Residual
  Residual-Control   Outer-Iter.   Inner-Iter.     Column Row Layer    Maximum-Head-Change  Column Row Layer    Maximum-Flux-Residual          L2-NORM 
          0                 1           2             2   13     1      -0.8456057287E-02       4   13    1        -0.4785782729E+00      0.9088501557E+00
          0                 2           2             4    7     1      -0.5537592323E-02       5    6    1        -0.2988686030E+00      0.7307833067E+00
          0                 3           2             4    7     1       0.5753185871E-02       5    6    1         0.3177306480E+00      0.7812746096E+00
          0                 4           2             4    7     1      -0.2289522810E-03       4    6    1        -0.1311161477E-01      0.3203198404E-01
          0                 5           1             4    7     1       0.2823079888E-05       4    6    1         0.1661713122E-03      0.4178868058E-03

    ------------------------------------------------
       NWT REQUIRED            5 OUTER ITERATIONS 
       AND A TOTAL OF          9 INNER ITERATIONS.
    ------------------------------------------------

 NO OUTPUT CONTROL FOR STRESS PERIOD    5   TIME STEP    5
 
 SOLVING FOR HEAD 
                                                   Max.-Head-Change                         Max.-Flux-Residual
  Residual-Control   Outer-Iter.   Inner-Iter.     Column Row Layer    Maximum-Head-Change  Column Row Layer    Maximum-Flux-Residual          L2-NORM 
          0                 1           2             2   13     1      -0.7737398931E-02       2   13    1        -0.4351497312E+00      0.8244841958E+00
          0                 2           2             4    7     1      -0.5558439847E-02       5    6    1        -0.2999127902E+00      0.7332377866E+00
          0                 3           2             4    7     1       0.5774672865E-02       5    6    1         0.3189114454E+00      0.7841559268E+00
          0                 4           2             4    7     1      -0.2298100794E-03       4    6    1        -0.1317246723E-01      0.3215415330E-01
          0                 5           1             4    7     1       0.2833657001E-05       4    6    1         0.1669492699E-03      0.4189885996E-03

    ------------------------------------------------
       NWT REQUIRED            5 OUTER ITERATIONS 
       AND A TOTAL OF          9 INNER ITERATIONS.
    ------------------------------------------------

 OUTPUT CONTROL FOR STRESS PERIOD    5   TIME STEP    6
    PRINT BUDGET
    SAVE BUDGET
 UBDSV1 SAVING "         STORAGE" ON UNIT 102 AT TIME STEP  6, STRESS PERIOD   5
 UBDSV2 SAVING "   CONSTANT HEAD" ON UNIT 102 AT TIME STEP  6, STRESS PERIOD   5
 UBDSV1 SAVING "FLOW RIGHT FACE " ON UNIT 102 AT TIME STEP  6, STRESS PERIOD   5
 UBDSV1 SAVING "FLOW FRONT FACE " ON UNIT 102 AT TIME STEP  6, STRESS PERIOD   5

  HEAD DEP BOUNDS   PERIOD    5   STEP     6
 BOUNDARY      1   LAYER   1   ROW    13   COL     1   RATE   -0.293463    
 BOUNDARY      2   LAYER   1   ROW    14   COL     9   RATE    0.285740    



 STREAM LISTING     PERIOD      5   STEP        6

 LAYER ROW COL. STREAM  RCH.  FLOW INTO     FLOW TO   FLOW OUT OF   OVRLND.     DIRECT     STREAM       STREAM     STREAM     STREAM   STREAMBED  STREAMBED
                SEG.NO.  NO.  STRM. RCH.    AQUIFER    STRM. RCH.    RUNOFF     PRECIP       ET          HEAD       DEPTH      WIDTH   CONDCTNC.   GRADIENT

   1    1    1     1     1    2.1000E+01  2.2592E-01   2.0774E+01  0.000E+00  0.000E+00  0.000E+00  1.09416E+03  1.115E+00  1.220E+01  5.490E-02  1.372E+00
   1    2    2     1     2    2.0774E+01  3.4916E-01   2.0425E+01  0.000E+00  0.000E+00  0.000E+00  1.08917E+03  1.110E+00  1.214E+01  8.495E-02  1.370E+00
   1    3    3     1     3    2.0425E+01  2.9709E-01   2.0128E+01  0.000E+00  0.000E+00  0.000E+00  1.08352E+03  1.105E+00  1.206E+01  7.238E-02  1.368E+00
   1    3    4     1     4    2.0128E+01  2.7299E-01   1.9855E+01  0.000E+00  0.000E+00  0.000E+00  1.07851E+03  1.100E+00  1.200E+01  6.659E-02  1.367E+00
   1    4    5     2     1    1.7855E+01  3.1056E-01   1.7544E+01  0.000E+00  0.000E+00  0.000E+00  1.07292E+03  9.816E-01  1.200E+01  7.800E-02  1.327E+00
   1    5    6     2     2    1.7544E+01  2.3834E-01   1.7306E+01  0.000E+00  0.000E+00  0.000E+00  1.06748E+03  9.724E-01  1.200E+01  6.000E-02  1.324E+00
   1    6    6     2     3    1.7306E+01  2.3787E-01   1.7068E+01  0.000E+00  0.000E+00  0.000E+00  1.06276E+03  9.644E-01  1.200E+01  6.000E-02  1.321E+00
   1    7    6     2     4    1.7068E+01  2.3738E-01   1.6831E+01  0.000E+00  0.000E+00  0.000E+00  1.05803E+03  9.564E-01  1.200E+01  6.000E-02  1.319E+00
   1    8    6     2     5    1.6831E+01  2.3690E-01   1.6594E+01  0.000E+00  0.000E+00  0.000E+00  1.05331E+03  9.483E-01  1.200E+01  6.000E-02  1.316E+00
   1    3    5     3     1    2.0000E+00  2.8252E-01   1.7175E+00  0.000E+00  0.000E+00  0.000E+00  1.07555E+03  1.909E+00  9.636E+00  7.227E-02  1.955E+00
   1    3    6     3     2    1.7175E+00  2.4905E-01   1.4684E+00  0.000E+00  0.000E+00  0.000E+00  1.07264E+03  1.727E+00  8.909E+00  6.682E-02  1.864E+00
   1    3    7     3     3    1.4684E+00  1.9718E-01   1.2712E+00  0.000E+00  0.000E+00  0.000E+00  1.06987E+03  1.555E+00  8.218E+00  5.547E-02  1.777E+00
   1    4    8     3     4    1.2712E+00  2.2567E-01   1.0456E+00  0.000E+00  0.000E+00  0.000E+00  1.06682E+03  1.364E+00  7.455E+00  6.709E-02  1.682E+00
   1    5    8     3     5    1.0456E+00  1.5790E-01   8.8768E-01  0.000E+00  0.000E+00  0.000E+00  1.06362E+03  1.164E+00  6.655E+00  4.991E-02  1.582E+00
   1    6    8     3     6    8.8768E-01  5.5980E-02   8.3170E-01  0.000E+00  0.000E+00  0.000E+00  1.06158E+03  1.036E+00  6.145E+00  1.844E-02  1.518E+00
   1    5   10     4     1    1.0000E+01  9.0919E-02   9.9091E+00  0.000E+00  0.000E+00  0.000E+00  1.07836E+03  6.368E-01  1.000E+01  2.500E-02  1.212E+00
   1    5    9     4     2    9.9091E+00  1.8158E-01   9.7275E+00  0.000E+00  0.000E+00  0.000E+00  1.07154E+03  6.315E-01  1.000E+01  5.000E-02  1.211E+00
   1    6    8     4     3    9.7275E+00  1.2689E-01   9.6006E+00  0.000E+00  0.000E+00  0.000E+00  1.06381E+03  6.256E-01  1.000E+01  3.500E-02  1.209E+00
   1    6    8     5     1    1.0432E+01  2.2686E-01   1.0205E+01  0.000E+00  0.000E+00  0.000E+00  1.05868E+03  6.790E-01  1.542E+01  6.166E-02  1.226E+00
   1    7    7     5     2    1.0205E+01  2.7894E-01   9.9265E+00  0.000E+00  0.000E+00  0.000E+00  1.05417E+03  6.732E-01  1.519E+01  7.594E-02  1.224E+00
   1    8    7     5     3    9.9265E+00  1.9221E-01   9.7343E+00  0.000E+00  0.000E+00  0.000E+00  1.04992E+03  6.676E-01  1.497E+01  5.241E-02  1.223E+00
   1    8    6     5     4    9.7343E+00  1.3577E-01   9.5985E+00  0.000E+00  0.000E+00  0.000E+00  1.04691E+03  6.637E-01  1.482E+01  3.706E-02  1.221E+00
   1    9    6     6     1    2.2617E+01  2.4876E-01   2.2369E+01  0.000E+00  0.000E+00  0.000E+00  1.04387E+03  1.146E+00  1.200E+01  6.000E-02  1.382E+00
   1   10    7     6     2    2.2369E+01  2.4831E-01   2.2120E+01  0.000E+00  0.000E+00  0.000E+00  1.03932E+03  1.138E+00  1.200E+01  6.000E-02  1.379E+00
   1   11    7     6     3    2.2120E+01  2.4785E-01   2.1872E+01  0.000E+00  0.000E+00  0.000E+00  1.03477E+03  1.131E+00  1.200E+01  6.000E-02  1.377E+00
   1   12    7     6     4    2.1872E+01  2.4739E-01   2.1625E+01  0.000E+00  0.000E+00  0.000E+00  1.03021E+03  1.123E+00  1.200E+01  6.000E-02  1.374E+00
   1   13    7     6     5    2.1625E+01 -2.4953E-02   2.1650E+01  0.000E+00  0.000E+00  0.000E+00  1.02703E+03  1.120E+00  1.200E+01  2.400E-01 -3.466E-02
   1   14    9     7     1    1.5000E+02  1.3355E+00   1.4866E+02  0.000E+00  0.000E+00  0.000E+00  1.03987E+03  2.288E+00  5.529E+01  5.593E-01  7.960E-01
   1   13    8     7     2    1.4866E+02  1.8262E+00   1.4684E+02  0.000E+00  0.000E+00  0.000E+00  1.03478E+03  2.279E+00  5.526E+01  6.148E-01  9.902E-01
   1   13    7     7     3    1.4684E+02  1.4281E+00   1.4541E+02  0.000E+00  0.000E+00  0.000E+00  1.02969E+03  2.271E+00  5.522E+01  5.585E-01  8.524E-01
   1   13    6     8     1    1.6706E+02  8.4278E-01   1.6622E+02  0.000E+00  0.000E+00  0.000E+00  1.02481E+03  2.930E+00  4.249E+01  4.330E-01  6.488E-01
   1   13    5     8     2    1.6622E+02  9.3653E-02   1.6612E+02  0.000E+00  0.000E+00  0.000E+00  1.01855E+03  2.927E+00  4.244E+01  4.325E-01  7.218E-02
   1   13    4     8     3    1.6612E+02 -3.0057E+00   1.6913E+02  0.000E+00  0.000E+00  0.000E+00  1.01231E+03  2.937E+00  4.258E+01  4.339E+00 -2.309E-01
   1   13    3     8     4    1.6913E+02 -4.1125E+00   1.7324E+02  0.000E+00  0.000E+00  0.000E+00  1.00608E+03  2.960E+00  4.292E+01  4.374E+00 -3.134E-01
   1   13    2     8     5    1.7324E+02 -3.0378E+00   1.7628E+02  0.000E+00  0.000E+00  0.000E+00  9.99858E+02  2.983E+00  4.325E+01  4.408E+00 -2.297E-01
   1   13    1     8     6    1.7628E+02 -2.2550E+00   1.7853E+02  0.000E+00  0.000E+00  0.000E+00  9.94875E+02  3.000E+00  4.350E+01  2.660E+00 -2.826E-01
   1    8    6     9     1    3.5750E+00  0.0000E+00   3.5750E+00  0.000E+00  0.000E+00  0.000E+00  1.07997E+03  1.222E+00  4.000E+00  0.000E+00  1.407E+00
   1    8    5     9     2    3.5750E+00  0.0000E+00   3.5750E+00  0.000E+00  0.000E+00  0.000E+00  1.07947E+03  1.222E+00  4.000E+00  0.000E+00  1.407E+00



 UBDSV3 SAVING "           GW ET" ON UNIT  61 AT TIME STEP  6, STRESS PERIOD   5
 UBDSV3 SAVING "    UZF RECHARGE" ON UNIT  61 AT TIME STEP  6, STRESS PERIOD   5
 UBDSV3 SAVING " SURFACE LEAKAGE" ON UNIT  61 AT TIME STEP  6, STRESS PERIOD   5
 UBDSV3 SAVING "       HORT+DUNN" ON UNIT  61 AT TIME STEP  6, STRESS PERIOD   5
 UBDSV3 SAVING "  STORAGE CHANGE" ON UNIT  61 AT TIME STEP  6, STRESS PERIOD   5


UNSATURATED ZONE PACKAGE VOLUMETRIC BUDGET FOR  TIME STEP     6 STRESS PERIOD    5
  ------------------------------------------------------------------------------



     CUMULATIVE VOLUMES      L**3       RATES FOR THIS TIME STEP      L**3/T
     ------------------                 ------------------------

           IN:                                      IN:
           ---                                      ---
        INFILTRATION =    38533677.4133          INFILTRATION =           7.9826

          OUT:                                     OUT:
          ----                                     ----
              UZF ET =    17387522.1069                UZF ET =          16.2401
        UZF RECHARGE =       73224.0000          UZF RECHARGE =       0.0000E+00

            IN - OUT =    21072931.3064              IN - OUT =          -8.2575

          STORAGE:                                 STORAGE:
          --------                                 --------
      STORAGE CHANGE =    21072931.0047        STORAGE CHANGE =          -8.2575

 PERCENT DISCREPANCY IS DIFFERENCE BETWEEN IN-OUT MINUS CHANGE IN STORAGE
 DIVIDED BY THE AVERAGE OF IN AND OUT TIMES 100

 PERCENT DISCREPANCY =           0.00     PERCENT DISCREPANCY =           0.00






 

            AG WELLS      PERIOD    5   STEP   6
 AG WELL      1   LAYER   1   ROW     6   COL     4   RATE     0.00000    
 AG WELL      2   LAYER   1   ROW     6   COL     5   RATE     0.00000    
 AG WELL      3   LAYER   1   ROW     7   COL     4   RATE     0.00000    
 AG WELL      4   LAYER   1   ROW     7   COL     5   RATE     0.00000    
 AG WELL      5   LAYER   1   ROW     8   COL     4   RATE     0.00000    
 AG WELL      6   LAYER   1   ROW     8   COL     5   RATE     0.00000    
 
 

   DIVERSION SEGMENTS     PERIOD    5   STEP   6
 SEGMENT      9   RATE     3.57503    
 
 

        SW IRRIGATION     PERIOD    5   STEP   6
 SEGMENT      9   ROW     6   COL     4   RATE    0.595849    
 SEGMENT      9   ROW     6   COL     5   RATE    0.595849    
 SEGMENT      9   ROW     7   COL     4   RATE    0.595849    
 SEGMENT      9   ROW     7   COL     5   RATE    0.595849    
 SEGMENT      9   ROW     8   COL     4   RATE    0.595849    
 SEGMENT      9   ROW     8   COL     5   RATE    0.595849    
 
 

        GW IRRIGATION     PERIOD    5   STEP   6
 AG WELL      1   ROW     6   COL     4   RATE     0.00000    
 AG WELL      2   ROW     6   COL     5   RATE     0.00000    
 AG WELL      3   ROW     7   COL     4   RATE     0.00000    
 AG WELL      4   ROW     7   COL     5   RATE     0.00000    
 AG WELL      5   ROW     8   COL     4   RATE     0.00000    
 AG WELL      6   ROW     8   COL     5   RATE     0.00000    
 
1
  VOLUMETRIC BUDGET FOR AGRICULTURAL FIELDS AT  END OF TIME STEP    6, STRESS PERIOD   5
  ------------------------------------------------------------------------------

     CUMULATIVE VOLUMES      L**3       RATES FOR THIS TIME STEP      L**3/T
     ------------------                 ------------------------

           IN:                                      IN:
           ---                                      ---
               AG WELLS  =       28019.3418                 AG WELLS  =           0.0000
      DIVERSION SEGMENTS =     1366908.0000        DIVERSION SEGMENTS =           3.5750
           GW IRRIGATION =           0.0000             GW IRRIGATION =           0.0000
           SW IRRIGATION =           0.0000             SW IRRIGATION =           0.0000
        SYSTEM LOSSES GW =           0.0000          SYSTEM LOSSES GW =           0.0000
        SYSTEM LOSSES SW =           0.0000          SYSTEM LOSSES SW =           0.0000

                TOTAL IN =     1394927.3750                  TOTAL IN =           3.5750

          OUT:                                     OUT:
          ----                                     ----
               AG WELLS  =           0.0000                 AG WELLS  =           0.0000
      DIVERSION SEGMENTS =           0.0000        DIVERSION SEGMENTS =           0.0000
           GW IRRIGATION =       28019.3418             GW IRRIGATION =           0.0000
           SW IRRIGATION =     1366935.2500             SW IRRIGATION =           3.5751
        SYSTEM LOSSES GW =           0.0000          SYSTEM LOSSES GW =           0.0000
        SYSTEM LOSSES SW =           0.0000          SYSTEM LOSSES SW =           0.0000

               TOTAL OUT =     1394954.6250                 TOTAL OUT =           3.5751

                IN - OUT =         -27.2500                  IN - OUT =      -7.1287E-05

     PERCENT DISCREPANCY =          -0.00         PERCENT DISCREPANCY =          -0.00



1
  VOLUMETRIC BUDGET FOR ENTIRE MODEL AT END OF TIME STEP    6, STRESS PERIOD   5
  ------------------------------------------------------------------------------

     CUMULATIVE VOLUMES      L**3       RATES FOR THIS TIME STEP      L**3/T
     ------------------                 ------------------------

           IN:                                      IN:
           ---                                      ---
             STORAGE     =     5730585.5000               STORAGE     =           2.2932
       CONSTANT HEAD     =           0.0000         CONSTANT HEAD     =           0.0000
     HEAD DEP BOUNDS     =     2429027.2500       HEAD DEP BOUNDS     =           0.2857
      STREAM LEAKAGE     =   101856352.0000        STREAM LEAKAGE     =          11.3263
        UZF RECHARGE     =       73223.9531          UZF RECHARGE     =           0.0000
               GW ET     =           0.0000                 GW ET     =           0.0000
     SURFACE LEAKAGE     =           0.0000       SURFACE LEAKAGE     =           0.0000
           AG WELLS      =           0.0000             AG WELLS      =           0.0000

                TOTAL IN =   110089192.0000                  TOTAL IN =          13.9052

          OUT:                                     OUT:
          ----                                     ----
             STORAGE     =    18661980.0000               STORAGE     =           1.1420
       CONSTANT HEAD     =           0.0000         CONSTANT HEAD     =           0.0000
     HEAD DEP BOUNDS     =     2471231.7500       HEAD DEP BOUNDS     =           0.2935
      STREAM LEAKAGE     =    88917944.0000        STREAM LEAKAGE     =          12.4359
        UZF RECHARGE     =           0.0000          UZF RECHARGE     =           0.0000
               GW ET     =       13725.4785                 GW ET     =       3.3733E-02
     SURFACE LEAKAGE     =           0.0000       SURFACE LEAKAGE     =           0.0000
           AG WELLS      =       28019.3418             AG WELLS      =           0.0000

               TOTAL OUT =   110092896.0000                 TOTAL OUT =          13.9052

                IN - OUT =       -3704.0000                  IN - OUT =       2.3842E-05

     PERCENT DISCREPANCY =          -0.00         PERCENT DISCREPANCY =           0.00






         TIME SUMMARY AT END OF TIME STEP    6 IN STRESS PERIOD    5
                    SECONDS     MINUTES      HOURS       DAYS        YEARS
                    -----------------------------------------------------------
   TIME STEP LENGTH  87667.      1461.1      24.352      1.0147     2.77799E-03
 STRESS PERIOD TIME 5.26000E+05  8766.7      146.11      6.0880     1.66679E-02
         TOTAL TIME 8.50239E+06 1.41707E+05  2361.8      98.407     0.26942    
1
 
 SOLVING FOR HEAD 
                                                   Max.-Head-Change                         Max.-Flux-Residual
  Residual-Control   Outer-Iter.   Inner-Iter.     Column Row Layer    Maximum-Head-Change  Column Row Layer    Maximum-Flux-Residual          L2-NORM 
          0                 1           2             2   13     1      -0.7070261146E-02       2   13    1        -0.3976463833E+00      0.7491778971E+00
          0                 2           2             4    7     1      -0.5572714800E-02       5    6    1        -0.3006069547E+00      0.7349616844E+00
          0                 3           2             4    7     1       0.5789020884E-02       5    6    1         0.3196983150E+00      0.7860595672E+00
          0                 4           2             4    7     1      -0.2303186743E-03       4    6    1        -0.1321343361E-01      0.3240509546E-01
          0                 5           1             4   13     1      -0.4328630596E-05       4   13    1        -0.2642600703E-03      0.4998440959E-03

    ------------------------------------------------
       NWT REQUIRED            5 OUTER ITERATIONS 
       AND A TOTAL OF          9 INNER ITERATIONS.
    ------------------------------------------------

 OUTPUT CONTROL FOR STRESS PERIOD    5   TIME STEP    7
    PRINT BUDGET
    SAVE BUDGET
 UBDSV1 SAVING "         STORAGE" ON UNIT 102 AT TIME STEP  7, STRESS PERIOD   5
 UBDSV2 SAVING "   CONSTANT HEAD" ON UNIT 102 AT TIME STEP  7, STRESS PERIOD   5
 UBDSV1 SAVING "FLOW RIGHT FACE " ON UNIT 102 AT TIME STEP  7, STRESS PERIOD   5
 UBDSV1 SAVING "FLOW FRONT FACE " ON UNIT 102 AT TIME STEP  7, STRESS PERIOD   5

  HEAD DEP BOUNDS   PERIOD    5   STEP     7
 BOUNDARY      1   LAYER   1   ROW    13   COL     1   RATE   -0.293278    
 BOUNDARY      2   LAYER   1   ROW    14   COL     9   RATE    0.285741    



 STREAM LISTING     PERIOD      5   STEP        7

 LAYER ROW COL. STREAM  RCH.  FLOW INTO     FLOW TO   FLOW OUT OF   OVRLND.     DIRECT     STREAM       STREAM     STREAM     STREAM   STREAMBED  STREAMBED
                SEG.NO.  NO.  STRM. RCH.    AQUIFER    STRM. RCH.    RUNOFF     PRECIP       ET          HEAD       DEPTH      WIDTH   CONDCTNC.   GRADIENT

   1    1    1     1     1    2.1000E+01  2.2592E-01   2.0774E+01  0.000E+00  0.000E+00  0.000E+00  1.09416E+03  1.115E+00  1.220E+01  5.490E-02  1.372E+00
   1    2    2     1     2    2.0774E+01  3.4916E-01   2.0425E+01  0.000E+00  0.000E+00  0.000E+00  1.08917E+03  1.110E+00  1.214E+01  8.495E-02  1.370E+00
   1    3    3     1     3    2.0425E+01  2.9709E-01   2.0128E+01  0.000E+00  0.000E+00  0.000E+00  1.08352E+03  1.105E+00  1.206E+01  7.238E-02  1.368E+00
   1    3    4     1     4    2.0128E+01  2.7299E-01   1.9855E+01  0.000E+00  0.000E+00  0.000E+00  1.07851E+03  1.100E+00  1.200E+01  6.659E-02  1.367E+00
   1    4    5     2     1    1.7855E+01  3.1056E-01   1.7544E+01  0.000E+00  0.000E+00  0.000E+00  1.07292E+03  9.816E-01  1.200E+01  7.800E-02  1.327E+00
   1    5    6     2     2    1.7544E+01  2.3834E-01   1.7306E+01  0.000E+00  0.000E+00  0.000E+00  1.06748E+03  9.724E-01  1.200E+01  6.000E-02  1.324E+00
   1    6    6     2     3    1.7306E+01  2.3787E-01   1.7068E+01  0.000E+00  0.000E+00  0.000E+00  1.06276E+03  9.644E-01  1.200E+01  6.000E-02  1.321E+00
   1    7    6     2     4    1.7068E+01  2.3738E-01   1.6831E+01  0.000E+00  0.000E+00  0.000E+00  1.05803E+03  9.564E-01  1.200E+01  6.000E-02  1.319E+00
   1    8    6     2     5    1.6831E+01  2.3690E-01   1.6594E+01  0.000E+00  0.000E+00  0.000E+00  1.05331E+03  9.483E-01  1.200E+01  6.000E-02  1.316E+00
   1    3    5     3     1    2.0000E+00  2.8252E-01   1.7175E+00  0.000E+00  0.000E+00  0.000E+00  1.07555E+03  1.909E+00  9.636E+00  7.227E-02  1.955E+00
   1    3    6     3     2    1.7175E+00  2.4905E-01   1.4684E+00  0.000E+00  0.000E+00  0.000E+00  1.07264E+03  1.727E+00  8.909E+00  6.682E-02  1.864E+00
   1    3    7     3     3    1.4684E+00  1.9718E-01   1.2712E+00  0.000E+00  0.000E+00  0.000E+00  1.06987E+03  1.555E+00  8.218E+00  5.547E-02  1.777E+00
   1    4    8     3     4    1.2712E+00  2.2567E-01   1.0456E+00  0.000E+00  0.000E+00  0.000E+00  1.06682E+03  1.364E+00  7.455E+00  6.709E-02  1.682E+00
   1    5    8     3     5    1.0456E+00  1.5790E-01   8.8768E-01  0.000E+00  0.000E+00  0.000E+00  1.06362E+03  1.164E+00  6.655E+00  4.991E-02  1.582E+00
   1    6    8     3     6    8.8768E-01  5.5980E-02   8.3170E-01  0.000E+00  0.000E+00  0.000E+00  1.06158E+03  1.036E+00  6.145E+00  1.844E-02  1.518E+00
   1    5   10     4     1    1.0000E+01  9.0919E-02   9.9091E+00  0.000E+00  0.000E+00  0.000E+00  1.07836E+03  6.368E-01  1.000E+01  2.500E-02  1.212E+00
   1    5    9     4     2    9.9091E+00  1.8158E-01   9.7275E+00  0.000E+00  0.000E+00  0.000E+00  1.07154E+03  6.315E-01  1.000E+01  5.000E-02  1.211E+00
   1    6    8     4     3    9.7275E+00  1.2689E-01   9.6006E+00  0.000E+00  0.000E+00  0.000E+00  1.06381E+03  6.256E-01  1.000E+01  3.500E-02  1.209E+00
   1    6    8     5     1    1.0432E+01  2.2686E-01   1.0205E+01  0.000E+00  0.000E+00  0.000E+00  1.05868E+03  6.790E-01  1.542E+01  6.166E-02  1.226E+00
   1    7    7     5     2    1.0205E+01  2.7894E-01   9.9265E+00  0.000E+00  0.000E+00  0.000E+00  1.05417E+03  6.732E-01  1.519E+01  7.594E-02  1.224E+00
   1    8    7     5     3    9.9265E+00  1.9221E-01   9.7343E+00  0.000E+00  0.000E+00  0.000E+00  1.04992E+03  6.676E-01  1.497E+01  5.241E-02  1.223E+00
   1    8    6     5     4    9.7343E+00  1.3577E-01   9.5985E+00  0.000E+00  0.000E+00  0.000E+00  1.04691E+03  6.637E-01  1.482E+01  3.706E-02  1.221E+00
   1    9    6     6     1    2.2608E+01  2.4875E-01   2.2359E+01  0.000E+00  0.000E+00  0.000E+00  1.04387E+03  1.146E+00  1.200E+01  6.000E-02  1.382E+00
   1   10    7     6     2    2.2359E+01  2.4829E-01   2.2111E+01  0.000E+00  0.000E+00  0.000E+00  1.03932E+03  1.138E+00  1.200E+01  6.000E-02  1.379E+00
   1   11    7     6     3    2.2111E+01  2.4783E-01   2.1863E+01  0.000E+00  0.000E+00  0.000E+00  1.03477E+03  1.131E+00  1.200E+01  6.000E-02  1.377E+00
   1   12    7     6     4    2.1863E+01  2.4737E-01   2.1616E+01  0.000E+00  0.000E+00  0.000E+00  1.03021E+03  1.123E+00  1.200E+01  6.000E-02  1.374E+00
   1   13    7     6     5    2.1616E+01 -2.5001E-02   2.1641E+01  0.000E+00  0.000E+00  0.000E+00  1.02703E+03  1.119E+00  1.200E+01  2.400E-01 -3.472E-02
   1   14    9     7     1    1.5000E+02  1.3356E+00   1.4866E+02  0.000E+00  0.000E+00  0.000E+00  1.03987E+03  2.288E+00  5.529E+01  5.593E-01  7.960E-01
   1   13    8     7     2    1.4866E+02  1.8261E+00   1.4684E+02  0.000E+00  0.000E+00  0.000E+00  1.03478E+03  2.279E+00  5.526E+01  6.148E-01  9.901E-01
   1   13    7     7     3    1.4684E+02  1.4282E+00   1.4541E+02  0.000E+00  0.000E+00  0.000E+00  1.02969E+03  2.271E+00  5.522E+01  5.585E-01  8.524E-01
   1   13    6     8     1    1.6705E+02  8.4329E-01   1.6621E+02  0.000E+00  0.000E+00  0.000E+00  1.02481E+03  2.930E+00  4.249E+01  4.330E-01  6.493E-01
   1   13    5     8     2    1.6621E+02  9.4122E-02   1.6611E+02  0.000E+00  0.000E+00  0.000E+00  1.01855E+03  2.927E+00  4.244E+01  4.325E-01  7.254E-02
   1   13    4     8     3    1.6611E+02 -2.9763E+00   1.6909E+02  0.000E+00  0.000E+00  0.000E+00  1.01231E+03  2.937E+00  4.258E+01  4.339E+00 -2.286E-01
   1   13    3     8     4    1.6909E+02 -4.0831E+00   1.7317E+02  0.000E+00  0.000E+00  0.000E+00  1.00608E+03  2.960E+00  4.291E+01  4.373E+00 -3.112E-01
   1   13    2     8     5    1.7317E+02 -3.0060E+00   1.7618E+02  0.000E+00  0.000E+00  0.000E+00  9.99857E+02  2.982E+00  4.324E+01  4.407E+00 -2.274E-01
   1   13    1     8     6    1.7618E+02 -2.2434E+00   1.7842E+02  0.000E+00  0.000E+00  0.000E+00  9.94874E+02  2.999E+00  4.349E+01  2.659E+00 -2.812E-01
   1    8    6     9     1    3.5843E+00  0.0000E+00   3.5843E+00  0.000E+00  0.000E+00  0.000E+00  1.07997E+03  1.224E+00  4.000E+00  0.000E+00  1.408E+00
   1    8    5     9     2    3.5843E+00  0.0000E+00   3.5843E+00  0.000E+00  0.000E+00  0.000E+00  1.07947E+03  1.224E+00  4.000E+00  0.000E+00  1.408E+00



 UBDSV3 SAVING "           GW ET" ON UNIT  61 AT TIME STEP  7, STRESS PERIOD   5
 UBDSV3 SAVING "    UZF RECHARGE" ON UNIT  61 AT TIME STEP  7, STRESS PERIOD   5
 UBDSV3 SAVING " SURFACE LEAKAGE" ON UNIT  61 AT TIME STEP  7, STRESS PERIOD   5
 UBDSV3 SAVING "       HORT+DUNN" ON UNIT  61 AT TIME STEP  7, STRESS PERIOD   5
 UBDSV3 SAVING "  STORAGE CHANGE" ON UNIT  61 AT TIME STEP  7, STRESS PERIOD   5


UNSATURATED ZONE PACKAGE VOLUMETRIC BUDGET FOR  TIME STEP     7 STRESS PERIOD    5
  ------------------------------------------------------------------------------



     CUMULATIVE VOLUMES      L**3       RATES FOR THIS TIME STEP      L**3/T
     ------------------                 ------------------------

           IN:                                      IN:
           ---                                      ---
        INFILTRATION =    39234299.1038          INFILTRATION =           7.9919

          OUT:                                     OUT:
          ----                                     ----
              UZF ET =    18803208.8423                UZF ET =          16.1485
        UZF RECHARGE =       73224.0000          UZF RECHARGE =       0.0000E+00

            IN - OUT =    20357866.2615              IN - OUT =          -8.1566

          STORAGE:                                 STORAGE:
          --------                                 --------
      STORAGE CHANGE =    20357865.9496        STORAGE CHANGE =          -8.1566

 PERCENT DISCREPANCY IS DIFFERENCE BETWEEN IN-OUT MINUS CHANGE IN STORAGE
 DIVIDED BY THE AVERAGE OF IN AND OUT TIMES 100

 PERCENT DISCREPANCY =           0.00     PERCENT DISCREPANCY =           0.00






 

            AG WELLS      PERIOD    5   STEP   7
 AG WELL      1   LAYER   1   ROW     6   COL     4   RATE   -1.033147E-05
 AG WELL      2   LAYER   1   ROW     6   COL     5   RATE   -1.033147E-05
 AG WELL      3   LAYER   1   ROW     7   COL     4   RATE   -1.033147E-05
 AG WELL      4   LAYER   1   ROW     7   COL     5   RATE   -1.033147E-05
 AG WELL      5   LAYER   1   ROW     8   COL     4   RATE   -1.033147E-05
 AG WELL      6   LAYER   1   ROW     8   COL     5   RATE   -1.033147E-05
 
 

   DIVERSION SEGMENTS     PERIOD    5   STEP   7
 SEGMENT      9   RATE     3.58431    
 
 

        SW IRRIGATION     PERIOD    5   STEP   7
 SEGMENT      9   ROW     6   COL     4   RATE    0.597387    
 SEGMENT      9   ROW     6   COL     5   RATE    0.597387    
 SEGMENT      9   ROW     7   COL     4   RATE    0.597387    
 SEGMENT      9   ROW     7   COL     5   RATE    0.597387    
 SEGMENT      9   ROW     8   COL     4   RATE    0.597387    
 SEGMENT      9   ROW     8   COL     5   RATE    0.597387    
 
 

        GW IRRIGATION     PERIOD    5   STEP   7
 AG WELL      1   ROW     6   COL     4   RATE    1.033147E-05
 AG WELL      2   ROW     6   COL     5   RATE    1.033147E-05
 AG WELL      3   ROW     7   COL     4   RATE    1.033147E-05
 AG WELL      4   ROW     7   COL     5   RATE    1.033147E-05
 AG WELL      5   ROW     8   COL     4   RATE    1.033147E-05
 AG WELL      6   ROW     8   COL     5   RATE    1.033147E-05
 
1
  VOLUMETRIC BUDGET FOR AGRICULTURAL FIELDS AT  END OF TIME STEP    7, STRESS PERIOD   5
  ------------------------------------------------------------------------------

     CUMULATIVE VOLUMES      L**3       RATES FOR THIS TIME STEP      L**3/T
     ------------------                 ------------------------

           IN:                                      IN:
           ---                                      ---
               AG WELLS  =       28024.7754                 AG WELLS  =       6.1989E-05
      DIVERSION SEGMENTS =     1681132.6250        DIVERSION SEGMENTS =           3.5843
           GW IRRIGATION =           0.0000             GW IRRIGATION =           0.0000
           SW IRRIGATION =           0.0000             SW IRRIGATION =           0.0000
        SYSTEM LOSSES GW =           0.0000          SYSTEM LOSSES GW =           0.0000
        SYSTEM LOSSES SW =           0.0000          SYSTEM LOSSES SW =           0.0000

                TOTAL IN =     1709157.3750                  TOTAL IN =           3.5844

          OUT:                                     OUT:
          ----                                     ----
               AG WELLS  =           0.0000                 AG WELLS  =           0.0000
      DIVERSION SEGMENTS =           0.0000        DIVERSION SEGMENTS =           0.0000
           GW IRRIGATION =       28024.7754             GW IRRIGATION =       6.1989E-05
           SW IRRIGATION =     1681166.1250             SW IRRIGATION =           3.5844
        SYSTEM LOSSES GW =           0.0000          SYSTEM LOSSES GW =           0.0000
        SYSTEM LOSSES SW =           0.0000          SYSTEM LOSSES SW =           0.0000

               TOTAL OUT =     1709190.8750                 TOTAL OUT =           3.5844

                IN - OUT =         -33.5000                  IN - OUT =      -7.1764E-05

     PERCENT DISCREPANCY =          -0.00         PERCENT DISCREPANCY =          -0.00



1
  VOLUMETRIC BUDGET FOR ENTIRE MODEL AT END OF TIME STEP    7, STRESS PERIOD   5
  ------------------------------------------------------------------------------

     CUMULATIVE VOLUMES      L**3       RATES FOR THIS TIME STEP      L**3/T
     ------------------                 ------------------------

           IN:                                      IN:
           ---                                      ---
             STORAGE     =     5919154.0000               STORAGE     =           2.1510
       CONSTANT HEAD     =           0.0000         CONSTANT HEAD     =           0.0000
     HEAD DEP BOUNDS     =     2454077.2500       HEAD DEP BOUNDS     =           0.2857
      STREAM LEAKAGE     =   102849360.0000        STREAM LEAKAGE     =          11.3271
        UZF RECHARGE     =       73223.9531          UZF RECHARGE     =           0.0000
               GW ET     =           0.0000                 GW ET     =           0.0000
     SURFACE LEAKAGE     =           0.0000       SURFACE LEAKAGE     =           0.0000
           AG WELLS      =           0.0000             AG WELLS      =           0.0000

                TOTAL IN =   111295816.0000                  TOTAL IN =          13.7638

          OUT:                                     OUT:
          ----                                     ----
             STORAGE     =    18759806.0000               STORAGE     =           1.1159
       CONSTANT HEAD     =           0.0000         CONSTANT HEAD     =           0.0000
     HEAD DEP BOUNDS     =     2496942.5000       HEAD DEP BOUNDS     =           0.2933
      STREAM LEAKAGE     =    89999200.0000        STREAM LEAKAGE     =          12.3337
        UZF RECHARGE     =           0.0000          UZF RECHARGE     =           0.0000
               GW ET     =       15549.0596                 GW ET     =       2.0801E-02
     SURFACE LEAKAGE     =           0.0000       SURFACE LEAKAGE     =           0.0000
           AG WELLS      =       28024.7754             AG WELLS      =       6.1989E-05

               TOTAL OUT =   111299528.0000                 TOTAL OUT =          13.7638

                IN - OUT =       -3712.0000                  IN - OUT =       3.5286E-05

     PERCENT DISCREPANCY =          -0.00         PERCENT DISCREPANCY =           0.00






         TIME SUMMARY AT END OF TIME STEP    7 IN STRESS PERIOD    5
                    SECONDS     MINUTES      HOURS       DAYS        YEARS
                    -----------------------------------------------------------
   TIME STEP LENGTH  87667.      1461.1      24.352      1.0147     2.77799E-03
 STRESS PERIOD TIME 6.13667E+05  10228.      170.46      7.1026     1.94459E-02
         TOTAL TIME 8.59006E+06 1.43168E+05  2386.1      99.422     0.27220    
1
 
 SOLVING FOR HEAD 
                                                   Max.-Head-Change                         Max.-Flux-Residual
  Residual-Control   Outer-Iter.   Inner-Iter.     Column Row Layer    Maximum-Head-Change  Column Row Layer    Maximum-Flux-Residual          L2-NORM 
          0                 1           2             2   13     1      -0.6451181593E-02       2   13    1        -0.3628382645E+00      0.6832516337E+00
          0                 2           2             4    7     1      -0.5578742643E-02       5    6    1        -0.3008608591E+00      0.7356720264E+00
          0                 3           2             4    7     1       0.5795387166E-02       5    6    1         0.3200447082E+00      0.7868953500E+00
          0                 4           2             4    7     1      -0.2306398973E-03       4    6    1        -0.1324371850E-01      0.3273886370E-01
          0                 5           1             4   13     1      -0.4167864951E-05       4   13    1        -0.2523826806E-03      0.5821216297E-03

    ------------------------------------------------
       NWT REQUIRED            5 OUTER ITERATIONS 
       AND A TOTAL OF          9 INNER ITERATIONS.
    ------------------------------------------------

 OUTPUT CONTROL FOR STRESS PERIOD    5   TIME STEP    8
    PRINT BUDGET
    SAVE BUDGET
 UBDSV1 SAVING "         STORAGE" ON UNIT 102 AT TIME STEP  8, STRESS PERIOD   5
 UBDSV2 SAVING "   CONSTANT HEAD" ON UNIT 102 AT TIME STEP  8, STRESS PERIOD   5
 UBDSV1 SAVING "FLOW RIGHT FACE " ON UNIT 102 AT TIME STEP  8, STRESS PERIOD   5
 UBDSV1 SAVING "FLOW FRONT FACE " ON UNIT 102 AT TIME STEP  8, STRESS PERIOD   5

  HEAD DEP BOUNDS   PERIOD    5   STEP     8
 BOUNDARY      1   LAYER   1   ROW    13   COL     1   RATE   -0.293100    
 BOUNDARY      2   LAYER   1   ROW    14   COL     9   RATE    0.285742    



 STREAM LISTING     PERIOD      5   STEP        8

 LAYER ROW COL. STREAM  RCH.  FLOW INTO     FLOW TO   FLOW OUT OF   OVRLND.     DIRECT     STREAM       STREAM     STREAM     STREAM   STREAMBED  STREAMBED
                SEG.NO.  NO.  STRM. RCH.    AQUIFER    STRM. RCH.    RUNOFF     PRECIP       ET          HEAD       DEPTH      WIDTH   CONDCTNC.   GRADIENT

   1    1    1     1     1    2.1000E+01  2.2592E-01   2.0774E+01  0.000E+00  0.000E+00  0.000E+00  1.09416E+03  1.115E+00  1.220E+01  5.490E-02  1.372E+00
   1    2    2     1     2    2.0774E+01  3.4916E-01   2.0425E+01  0.000E+00  0.000E+00  0.000E+00  1.08917E+03  1.110E+00  1.214E+01  8.495E-02  1.370E+00
   1    3    3     1     3    2.0425E+01  2.9709E-01   2.0128E+01  0.000E+00  0.000E+00  0.000E+00  1.08352E+03  1.105E+00  1.206E+01  7.238E-02  1.368E+00
   1    3    4     1     4    2.0128E+01  2.7299E-01   1.9855E+01  0.000E+00  0.000E+00  0.000E+00  1.07851E+03  1.100E+00  1.200E+01  6.659E-02  1.367E+00
   1    4    5     2     1    1.7855E+01  3.1056E-01   1.7544E+01  0.000E+00  0.000E+00  0.000E+00  1.07292E+03  9.816E-01  1.200E+01  7.800E-02  1.327E+00
   1    5    6     2     2    1.7544E+01  2.3834E-01   1.7306E+01  0.000E+00  0.000E+00  0.000E+00  1.06748E+03  9.724E-01  1.200E+01  6.000E-02  1.324E+00
   1    6    6     2     3    1.7306E+01  2.3787E-01   1.7068E+01  0.000E+00  0.000E+00  0.000E+00  1.06276E+03  9.644E-01  1.200E+01  6.000E-02  1.321E+00
   1    7    6     2     4    1.7068E+01  2.3738E-01   1.6831E+01  0.000E+00  0.000E+00  0.000E+00  1.05803E+03  9.564E-01  1.200E+01  6.000E-02  1.319E+00
   1    8    6     2     5    1.6831E+01  2.3690E-01   1.6594E+01  0.000E+00  0.000E+00  0.000E+00  1.05331E+03  9.483E-01  1.200E+01  6.000E-02  1.316E+00
   1    3    5     3     1    2.0000E+00  2.8252E-01   1.7175E+00  0.000E+00  0.000E+00  0.000E+00  1.07555E+03  1.909E+00  9.636E+00  7.227E-02  1.955E+00
   1    3    6     3     2    1.7175E+00  2.4905E-01   1.4684E+00  0.000E+00  0.000E+00  0.000E+00  1.07264E+03  1.727E+00  8.909E+00  6.682E-02  1.864E+00
   1    3    7     3     3    1.4684E+00  1.9718E-01   1.2712E+00  0.000E+00  0.000E+00  0.000E+00  1.06987E+03  1.555E+00  8.218E+00  5.547E-02  1.777E+00
   1    4    8     3     4    1.2712E+00  2.2567E-01   1.0456E+00  0.000E+00  0.000E+00  0.000E+00  1.06682E+03  1.364E+00  7.455E+00  6.709E-02  1.682E+00
   1    5    8     3     5    1.0456E+00  1.5790E-01   8.8768E-01  0.000E+00  0.000E+00  0.000E+00  1.06362E+03  1.164E+00  6.655E+00  4.991E-02  1.582E+00
   1    6    8     3     6    8.8768E-01  5.5980E-02   8.3170E-01  0.000E+00  0.000E+00  0.000E+00  1.06158E+03  1.036E+00  6.145E+00  1.844E-02  1.518E+00
   1    5   10     4     1    1.0000E+01  9.0919E-02   9.9091E+00  0.000E+00  0.000E+00  0.000E+00  1.07836E+03  6.368E-01  1.000E+01  2.500E-02  1.212E+00
   1    5    9     4     2    9.9091E+00  1.8158E-01   9.7275E+00  0.000E+00  0.000E+00  0.000E+00  1.07154E+03  6.315E-01  1.000E+01  5.000E-02  1.211E+00
   1    6    8     4     3    9.7275E+00  1.2689E-01   9.6006E+00  0.000E+00  0.000E+00  0.000E+00  1.06381E+03  6.256E-01  1.000E+01  3.500E-02  1.209E+00
   1    6    8     5     1    1.0432E+01  2.2686E-01   1.0205E+01  0.000E+00  0.000E+00  0.000E+00  1.05868E+03  6.790E-01  1.542E+01  6.166E-02  1.226E+00
   1    7    7     5     2    1.0205E+01  2.7894E-01   9.9265E+00  0.000E+00  0.000E+00  0.000E+00  1.05417E+03  6.732E-01  1.519E+01  7.594E-02  1.224E+00
   1    8    7     5     3    9.9265E+00  1.9221E-01   9.7343E+00  0.000E+00  0.000E+00  0.000E+00  1.04992E+03  6.676E-01  1.497E+01  5.241E-02  1.223E+00
   1    8    6     5     4    9.7343E+00  1.3577E-01   9.5985E+00  0.000E+00  0.000E+00  0.000E+00  1.04691E+03  6.637E-01  1.482E+01  3.706E-02  1.221E+00
   1    9    6     6     1    2.2605E+01  2.4874E-01   2.2356E+01  0.000E+00  0.000E+00  0.000E+00  1.04387E+03  1.146E+00  1.200E+01  6.000E-02  1.382E+00
   1   10    7     6     2    2.2356E+01  2.4828E-01   2.2108E+01  0.000E+00  0.000E+00  0.000E+00  1.03932E+03  1.138E+00  1.200E+01  6.000E-02  1.379E+00
   1   11    7     6     3    2.2108E+01  2.4782E-01   2.1860E+01  0.000E+00  0.000E+00  0.000E+00  1.03477E+03  1.130E+00  1.200E+01  6.000E-02  1.377E+00
   1   12    7     6     4    2.1860E+01  2.4736E-01   2.1612E+01  0.000E+00  0.000E+00  0.000E+00  1.03021E+03  1.123E+00  1.200E+01  6.000E-02  1.374E+00
   1   13    7     6     5    2.1612E+01 -2.5006E-02   2.1637E+01  0.000E+00  0.000E+00  0.000E+00  1.02703E+03  1.119E+00  1.200E+01  2.400E-01 -3.473E-02
   1   14    9     7     1    1.5000E+02  1.3356E+00   1.4866E+02  0.000E+00  0.000E+00  0.000E+00  1.03987E+03  2.288E+00  5.529E+01  5.593E-01  7.960E-01
   1   13    8     7     2    1.4866E+02  1.8259E+00   1.4684E+02  0.000E+00  0.000E+00  0.000E+00  1.03478E+03  2.279E+00  5.526E+01  6.148E-01  9.900E-01
   1   13    7     7     3    1.4684E+02  1.4282E+00   1.4541E+02  0.000E+00  0.000E+00  0.000E+00  1.02969E+03  2.271E+00  5.522E+01  5.585E-01  8.525E-01
   1   13    6     8     1    1.6705E+02  8.4380E-01   1.6620E+02  0.000E+00  0.000E+00  0.000E+00  1.02481E+03  2.930E+00  4.249E+01  4.330E-01  6.497E-01
   1   13    5     8     2    1.6620E+02  9.4618E-02   1.6611E+02  0.000E+00  0.000E+00  0.000E+00  1.01855E+03  2.927E+00  4.244E+01  4.325E-01  7.292E-02
   1   13    4     8     3    1.6611E+02 -2.9494E+00   1.6906E+02  0.000E+00  0.000E+00  0.000E+00  1.01231E+03  2.936E+00  4.258E+01  4.339E+00 -2.266E-01
   1   13    3     8     4    1.6906E+02 -4.0564E+00   1.7312E+02  0.000E+00  0.000E+00  0.000E+00  1.00608E+03  2.959E+00  4.291E+01  4.373E+00 -3.092E-01
   1   13    2     8     5    1.7312E+02 -2.9765E+00   1.7609E+02  0.000E+00  0.000E+00  0.000E+00  9.99857E+02  2.982E+00  4.324E+01  4.406E+00 -2.252E-01
   1   13    1     8     6    1.7609E+02 -2.2321E+00   1.7832E+02  0.000E+00  0.000E+00  0.000E+00  9.94874E+02  2.999E+00  4.348E+01  2.658E+00 -2.799E-01
   1    8    6     9     1    3.5878E+00  0.0000E+00   3.5878E+00  0.000E+00  0.000E+00  0.000E+00  1.07998E+03  1.225E+00  4.000E+00  0.000E+00  1.408E+00
   1    8    5     9     2    3.5878E+00  0.0000E+00   3.5878E+00  0.000E+00  0.000E+00  0.000E+00  1.07948E+03  1.225E+00  4.000E+00  0.000E+00  1.408E+00



 UBDSV3 SAVING "           GW ET" ON UNIT  61 AT TIME STEP  8, STRESS PERIOD   5
 UBDSV3 SAVING "    UZF RECHARGE" ON UNIT  61 AT TIME STEP  8, STRESS PERIOD   5
 UBDSV3 SAVING " SURFACE LEAKAGE" ON UNIT  61 AT TIME STEP  8, STRESS PERIOD   5
 UBDSV3 SAVING "       HORT+DUNN" ON UNIT  61 AT TIME STEP  8, STRESS PERIOD   5
 UBDSV3 SAVING "  STORAGE CHANGE" ON UNIT  61 AT TIME STEP  8, STRESS PERIOD   5


UNSATURATED ZONE PACKAGE VOLUMETRIC BUDGET FOR  TIME STEP     8 STRESS PERIOD    5
  ------------------------------------------------------------------------------



     CUMULATIVE VOLUMES      L**3       RATES FOR THIS TIME STEP      L**3/T
     ------------------                 ------------------------

           IN:                                      IN:
           ---                                      ---
        INFILTRATION =    39935229.2083          INFILTRATION =           7.9954

          OUT:                                     OUT:
          ----                                     ----
              UZF ET =    20222885.4292                UZF ET =          16.1940
        UZF RECHARGE =       73224.0000          UZF RECHARGE =       0.0000E+00

            IN - OUT =    19639119.7791              IN - OUT =          -8.1986

          STORAGE:                                 STORAGE:
          --------                                 --------
      STORAGE CHANGE =    19639119.4757        STORAGE CHANGE =          -8.1986

 PERCENT DISCREPANCY IS DIFFERENCE BETWEEN IN-OUT MINUS CHANGE IN STORAGE
 DIVIDED BY THE AVERAGE OF IN AND OUT TIMES 100

 PERCENT DISCREPANCY =           0.00     PERCENT DISCREPANCY =           0.00






 

            AG WELLS      PERIOD    5   STEP   8
 AG WELL      1   LAYER   1   ROW     6   COL     4   RATE     0.00000    
 AG WELL      2   LAYER   1   ROW     6   COL     5   RATE     0.00000    
 AG WELL      3   LAYER   1   ROW     7   COL     4   RATE     0.00000    
 AG WELL      4   LAYER   1   ROW     7   COL     5   RATE     0.00000    
 AG WELL      5   LAYER   1   ROW     8   COL     4   RATE     0.00000    
 AG WELL      6   LAYER   1   ROW     8   COL     5   RATE     0.00000    
 
 

   DIVERSION SEGMENTS     PERIOD    5   STEP   8
 SEGMENT      9   RATE     3.58783    
 
 

        SW IRRIGATION     PERIOD    5   STEP   8
 SEGMENT      9   ROW     6   COL     4   RATE    0.597983    
 SEGMENT      9   ROW     6   COL     5   RATE    0.597983    
 SEGMENT      9   ROW     7   COL     4   RATE    0.597983    
 SEGMENT      9   ROW     7   COL     5   RATE    0.597983    
 SEGMENT      9   ROW     8   COL     4   RATE    0.597983    
 SEGMENT      9   ROW     8   COL     5   RATE    0.597983    
 
 

        GW IRRIGATION     PERIOD    5   STEP   8
 AG WELL      1   ROW     6   COL     4   RATE     0.00000    
 AG WELL      2   ROW     6   COL     5   RATE     0.00000    
 AG WELL      3   ROW     7   COL     4   RATE     0.00000    
 AG WELL      4   ROW     7   COL     5   RATE     0.00000    
 AG WELL      5   ROW     8   COL     4   RATE     0.00000    
 AG WELL      6   ROW     8   COL     5   RATE     0.00000    
 
1
  VOLUMETRIC BUDGET FOR AGRICULTURAL FIELDS AT  END OF TIME STEP    8, STRESS PERIOD   5
  ------------------------------------------------------------------------------

     CUMULATIVE VOLUMES      L**3       RATES FOR THIS TIME STEP      L**3/T
     ------------------                 ------------------------

           IN:                                      IN:
           ---                                      ---
               AG WELLS  =       28024.7754                 AG WELLS  =           0.0000
      DIVERSION SEGMENTS =     1995665.6250        DIVERSION SEGMENTS =           3.5878
           GW IRRIGATION =           0.0000             GW IRRIGATION =           0.0000
           SW IRRIGATION =           0.0000             SW IRRIGATION =           0.0000
        SYSTEM LOSSES GW =           0.0000          SYSTEM LOSSES GW =           0.0000
        SYSTEM LOSSES SW =           0.0000          SYSTEM LOSSES SW =           0.0000

                TOTAL IN =     2023690.3750                  TOTAL IN =           3.5878

          OUT:                                     OUT:
          ----                                     ----
               AG WELLS  =           0.0000                 AG WELLS  =           0.0000
      DIVERSION SEGMENTS =           0.0000        DIVERSION SEGMENTS =           0.0000
           GW IRRIGATION =       28024.7754             GW IRRIGATION =           0.0000
           SW IRRIGATION =     1995705.3750             SW IRRIGATION =           3.5879
        SYSTEM LOSSES GW =           0.0000          SYSTEM LOSSES GW =           0.0000
        SYSTEM LOSSES SW =           0.0000          SYSTEM LOSSES SW =           0.0000

               TOTAL OUT =     2023730.1250                 TOTAL OUT =           3.5879

                IN - OUT =         -39.7500                  IN - OUT =      -7.1764E-05

     PERCENT DISCREPANCY =          -0.00         PERCENT DISCREPANCY =          -0.00



1
  VOLUMETRIC BUDGET FOR ENTIRE MODEL AT END OF TIME STEP    8, STRESS PERIOD   5
  ------------------------------------------------------------------------------

     CUMULATIVE VOLUMES      L**3       RATES FOR THIS TIME STEP      L**3/T
     ------------------                 ------------------------

           IN:                                      IN:
           ---                                      ---
             STORAGE     =     6096683.0000               STORAGE     =           2.0250
       CONSTANT HEAD     =           0.0000         CONSTANT HEAD     =           0.0000
     HEAD DEP BOUNDS     =     2479127.2500       HEAD DEP BOUNDS     =           0.2857
      STREAM LEAKAGE     =   103842448.0000        STREAM LEAKAGE     =          11.3280
        UZF RECHARGE     =       73223.9531          UZF RECHARGE     =           0.0000
               GW ET     =           0.0000                 GW ET     =           0.0000
     SURFACE LEAKAGE     =           0.0000       SURFACE LEAKAGE     =           0.0000
           AG WELLS      =           0.0000             AG WELLS      =           0.0000

                TOTAL IN =   112491480.0000                  TOTAL IN =          13.6388

          OUT:                                     OUT:
          ----                                     ----
             STORAGE     =    18855596.0000               STORAGE     =           1.0927
       CONSTANT HEAD     =           0.0000         CONSTANT HEAD     =           0.0000
     HEAD DEP BOUNDS     =     2522637.7500       HEAD DEP BOUNDS     =           0.2931
      STREAM LEAKAGE     =    91072184.0000        STREAM LEAKAGE     =          12.2394
        UZF RECHARGE     =           0.0000          UZF RECHARGE     =           0.0000
               GW ET     =       16743.8184                 GW ET     =       1.3628E-02
     SURFACE LEAKAGE     =           0.0000       SURFACE LEAKAGE     =           0.0000
           AG WELLS      =       28024.7754             AG WELLS      =           0.0000

               TOTAL OUT =   112495184.0000                 TOTAL OUT =          13.6388

                IN - OUT =       -3704.0000                  IN - OUT =       5.2452E-05

     PERCENT DISCREPANCY =          -0.00         PERCENT DISCREPANCY =           0.00






         TIME SUMMARY AT END OF TIME STEP    8 IN STRESS PERIOD    5
                    SECONDS     MINUTES      HOURS       DAYS        YEARS
                    -----------------------------------------------------------
   TIME STEP LENGTH  87667.      1461.1      24.352      1.0147     2.77799E-03
 STRESS PERIOD TIME 7.01333E+05  11689.      194.81      8.1173     2.22239E-02
         TOTAL TIME 8.67773E+06 1.44629E+05  2410.5      100.44     0.27498    
1
 
 SOLVING FOR HEAD 
                                                   Max.-Head-Change                         Max.-Flux-Residual
  Residual-Control   Outer-Iter.   Inner-Iter.     Column Row Layer    Maximum-Head-Change  Column Row Layer    Maximum-Flux-Residual          L2-NORM 
          0                 1           2             2   13     1      -0.5877204897E-02       2   13    1        -0.3305611325E+00      0.6261903843E+00
          0                 2           2             4    7     1      -0.5567381659E-02       5    6    1        -0.3001866967E+00      0.7341634064E+00
          0                 3           2             4    7     1       0.5783380922E-02       5    6    1         0.3193771786E+00      0.7852294476E+00
          0                 4           2             4    7     1      -0.2301649191E-03       4    6    1        -0.1322875104E-01      0.3266528235E-01
          0                 5           1             4   13     1      -0.4145168221E-05       4   13    1        -0.2514670596E-03      0.5787806423E-03

    ------------------------------------------------
       NWT REQUIRED            5 OUTER ITERATIONS 
       AND A TOTAL OF          9 INNER ITERATIONS.
    ------------------------------------------------

 OUTPUT CONTROL FOR STRESS PERIOD    5   TIME STEP    9
    PRINT BUDGET
    SAVE BUDGET
 UBDSV1 SAVING "         STORAGE" ON UNIT 102 AT TIME STEP  9, STRESS PERIOD   5
 UBDSV2 SAVING "   CONSTANT HEAD" ON UNIT 102 AT TIME STEP  9, STRESS PERIOD   5
 UBDSV1 SAVING "FLOW RIGHT FACE " ON UNIT 102 AT TIME STEP  9, STRESS PERIOD   5
 UBDSV1 SAVING "FLOW FRONT FACE " ON UNIT 102 AT TIME STEP  9, STRESS PERIOD   5

  HEAD DEP BOUNDS   PERIOD    5   STEP     9
 BOUNDARY      1   LAYER   1   ROW    13   COL     1   RATE   -0.292930    
 BOUNDARY      2   LAYER   1   ROW    14   COL     9   RATE    0.285742    



 STREAM LISTING     PERIOD      5   STEP        9

 LAYER ROW COL. STREAM  RCH.  FLOW INTO     FLOW TO   FLOW OUT OF   OVRLND.     DIRECT     STREAM       STREAM     STREAM     STREAM   STREAMBED  STREAMBED
                SEG.NO.  NO.  STRM. RCH.    AQUIFER    STRM. RCH.    RUNOFF     PRECIP       ET          HEAD       DEPTH      WIDTH   CONDCTNC.   GRADIENT

   1    1    1     1     1    2.1000E+01  2.2592E-01   2.0774E+01  0.000E+00  0.000E+00  0.000E+00  1.09416E+03  1.115E+00  1.220E+01  5.490E-02  1.372E+00
   1    2    2     1     2    2.0774E+01  3.4916E-01   2.0425E+01  0.000E+00  0.000E+00  0.000E+00  1.08917E+03  1.110E+00  1.214E+01  8.495E-02  1.370E+00
   1    3    3     1     3    2.0425E+01  2.9709E-01   2.0128E+01  0.000E+00  0.000E+00  0.000E+00  1.08352E+03  1.105E+00  1.206E+01  7.238E-02  1.368E+00
   1    3    4     1     4    2.0128E+01  2.7299E-01   1.9855E+01  0.000E+00  0.000E+00  0.000E+00  1.07851E+03  1.100E+00  1.200E+01  6.659E-02  1.367E+00
   1    4    5     2     1    1.7855E+01  3.1056E-01   1.7544E+01  0.000E+00  0.000E+00  0.000E+00  1.07292E+03  9.816E-01  1.200E+01  7.800E-02  1.327E+00
   1    5    6     2     2    1.7544E+01  2.3834E-01   1.7306E+01  0.000E+00  0.000E+00  0.000E+00  1.06748E+03  9.724E-01  1.200E+01  6.000E-02  1.324E+00
   1    6    6     2     3    1.7306E+01  2.3787E-01   1.7068E+01  0.000E+00  0.000E+00  0.000E+00  1.06276E+03  9.644E-01  1.200E+01  6.000E-02  1.321E+00
   1    7    6     2     4    1.7068E+01  2.3738E-01   1.6831E+01  0.000E+00  0.000E+00  0.000E+00  1.05803E+03  9.564E-01  1.200E+01  6.000E-02  1.319E+00
   1    8    6     2     5    1.6831E+01  2.3690E-01   1.6594E+01  0.000E+00  0.000E+00  0.000E+00  1.05331E+03  9.483E-01  1.200E+01  6.000E-02  1.316E+00
   1    3    5     3     1    2.0000E+00  2.8252E-01   1.7175E+00  0.000E+00  0.000E+00  0.000E+00  1.07555E+03  1.909E+00  9.636E+00  7.227E-02  1.955E+00
   1    3    6     3     2    1.7175E+00  2.4905E-01   1.4684E+00  0.000E+00  0.000E+00  0.000E+00  1.07264E+03  1.727E+00  8.909E+00  6.682E-02  1.864E+00
   1    3    7     3     3    1.4684E+00  1.9718E-01   1.2712E+00  0.000E+00  0.000E+00  0.000E+00  1.06987E+03  1.555E+00  8.218E+00  5.547E-02  1.777E+00
   1    4    8     3     4    1.2712E+00  2.2567E-01   1.0456E+00  0.000E+00  0.000E+00  0.000E+00  1.06682E+03  1.364E+00  7.455E+00  6.709E-02  1.682E+00
   1    5    8     3     5    1.0456E+00  1.5790E-01   8.8768E-01  0.000E+00  0.000E+00  0.000E+00  1.06362E+03  1.164E+00  6.655E+00  4.991E-02  1.582E+00
   1    6    8     3     6    8.8768E-01  5.5980E-02   8.3170E-01  0.000E+00  0.000E+00  0.000E+00  1.06158E+03  1.036E+00  6.145E+00  1.844E-02  1.518E+00
   1    5   10     4     1    1.0000E+01  9.0919E-02   9.9091E+00  0.000E+00  0.000E+00  0.000E+00  1.07836E+03  6.368E-01  1.000E+01  2.500E-02  1.212E+00
   1    5    9     4     2    9.9091E+00  1.8158E-01   9.7275E+00  0.000E+00  0.000E+00  0.000E+00  1.07154E+03  6.315E-01  1.000E+01  5.000E-02  1.211E+00
   1    6    8     4     3    9.7275E+00  1.2689E-01   9.6006E+00  0.000E+00  0.000E+00  0.000E+00  1.06381E+03  6.256E-01  1.000E+01  3.500E-02  1.209E+00
   1    6    8     5     1    1.0432E+01  2.2686E-01   1.0205E+01  0.000E+00  0.000E+00  0.000E+00  1.05868E+03  6.790E-01  1.542E+01  6.166E-02  1.226E+00
   1    7    7     5     2    1.0205E+01  2.7894E-01   9.9265E+00  0.000E+00  0.000E+00  0.000E+00  1.05417E+03  6.732E-01  1.519E+01  7.594E-02  1.224E+00
   1    8    7     5     3    9.9265E+00  1.9221E-01   9.7343E+00  0.000E+00  0.000E+00  0.000E+00  1.04992E+03  6.676E-01  1.497E+01  5.241E-02  1.223E+00
   1    8    6     5     4    9.7343E+00  1.3577E-01   9.5985E+00  0.000E+00  0.000E+00  0.000E+00  1.04691E+03  6.637E-01  1.482E+01  3.706E-02  1.221E+00
   1    9    6     6     1    2.2612E+01  2.4875E-01   2.2363E+01  0.000E+00  0.000E+00  0.000E+00  1.04387E+03  1.146E+00  1.200E+01  6.000E-02  1.382E+00
   1   10    7     6     2    2.2363E+01  2.4830E-01   2.2115E+01  0.000E+00  0.000E+00  0.000E+00  1.03932E+03  1.138E+00  1.200E+01  6.000E-02  1.379E+00
   1   11    7     6     3    2.2115E+01  2.4784E-01   2.1867E+01  0.000E+00  0.000E+00  0.000E+00  1.03477E+03  1.131E+00  1.200E+01  6.000E-02  1.377E+00
   1   12    7     6     4    2.1867E+01  2.4738E-01   2.1620E+01  0.000E+00  0.000E+00  0.000E+00  1.03021E+03  1.123E+00  1.200E+01  6.000E-02  1.374E+00
   1   13    7     6     5    2.1620E+01 -2.4929E-02   2.1645E+01  0.000E+00  0.000E+00  0.000E+00  1.02703E+03  1.120E+00  1.200E+01  2.400E-01 -3.462E-02
   1   14    9     7     1    1.5000E+02  1.3356E+00   1.4866E+02  0.000E+00  0.000E+00  0.000E+00  1.03987E+03  2.288E+00  5.529E+01  5.593E-01  7.960E-01
   1   13    8     7     2    1.4866E+02  1.8258E+00   1.4684E+02  0.000E+00  0.000E+00  0.000E+00  1.03478E+03  2.279E+00  5.526E+01  6.148E-01  9.900E-01
   1   13    7     7     3    1.4684E+02  1.4283E+00   1.4541E+02  0.000E+00  0.000E+00  0.000E+00  1.02969E+03  2.271E+00  5.522E+01  5.585E-01  8.525E-01
   1   13    6     8     1    1.6706E+02  8.4434E-01   1.6621E+02  0.000E+00  0.000E+00  0.000E+00  1.02481E+03  2.930E+00  4.249E+01  4.330E-01  6.501E-01
   1   13    5     8     2    1.6621E+02  9.5154E-02   1.6612E+02  0.000E+00  0.000E+00  0.000E+00  1.01855E+03  2.927E+00  4.244E+01  4.325E-01  7.334E-02
   1   13    4     8     3    1.6612E+02 -2.9248E+00   1.6904E+02  0.000E+00  0.000E+00  0.000E+00  1.01231E+03  2.936E+00  4.258E+01  4.339E+00 -2.247E-01
   1   13    3     8     4    1.6904E+02 -4.0321E+00   1.7307E+02  0.000E+00  0.000E+00  0.000E+00  1.00608E+03  2.959E+00  4.291E+01  4.372E+00 -3.074E-01
   1   13    2     8     5    1.7307E+02 -2.9489E+00   1.7602E+02  0.000E+00  0.000E+00  0.000E+00  9.99857E+02  2.982E+00  4.323E+01  4.406E+00 -2.231E-01
   1   13    1     8     6    1.7602E+02 -2.2211E+00   1.7824E+02  0.000E+00  0.000E+00  0.000E+00  9.94873E+02  2.998E+00  4.347E+01  2.658E+00 -2.785E-01
   1    8    6     9     1    3.5804E+00  0.0000E+00   3.5804E+00  0.000E+00  0.000E+00  0.000E+00  1.07997E+03  1.224E+00  4.000E+00  0.000E+00  1.408E+00
   1    8    5     9     2    3.5804E+00  0.0000E+00   3.5804E+00  0.000E+00  0.000E+00  0.000E+00  1.07947E+03  1.224E+00  4.000E+00  0.000E+00  1.408E+00



 UBDSV3 SAVING "           GW ET" ON UNIT  61 AT TIME STEP  9, STRESS PERIOD   5
 UBDSV3 SAVING "    UZF RECHARGE" ON UNIT  61 AT TIME STEP  9, STRESS PERIOD   5
 UBDSV3 SAVING " SURFACE LEAKAGE" ON UNIT  61 AT TIME STEP  9, STRESS PERIOD   5
 UBDSV3 SAVING "       HORT+DUNN" ON UNIT  61 AT TIME STEP  9, STRESS PERIOD   5
 UBDSV3 SAVING "  STORAGE CHANGE" ON UNIT  61 AT TIME STEP  9, STRESS PERIOD   5


UNSATURATED ZONE PACKAGE VOLUMETRIC BUDGET FOR  TIME STEP     9 STRESS PERIOD    5
  ------------------------------------------------------------------------------



     CUMULATIVE VOLUMES      L**3       RATES FOR THIS TIME STEP      L**3/T
     ------------------                 ------------------------

           IN:                                      IN:
           ---                                      ---
        INFILTRATION =    40635506.7229          INFILTRATION =           7.9880

          OUT:                                     OUT:
          ----                                     ----
              UZF ET =    21124679.2603                UZF ET =          10.2866
        UZF RECHARGE =       73224.0000          UZF RECHARGE =       0.0000E+00

            IN - OUT =    19437603.4626              IN - OUT =          -2.2987

          STORAGE:                                 STORAGE:
          --------                                 --------
      STORAGE CHANGE =    19437603.1483        STORAGE CHANGE =          -2.2987

 PERCENT DISCREPANCY IS DIFFERENCE BETWEEN IN-OUT MINUS CHANGE IN STORAGE
 DIVIDED BY THE AVERAGE OF IN AND OUT TIMES 100

 PERCENT DISCREPANCY =           0.00     PERCENT DISCREPANCY =           0.00






 

            AG WELLS      PERIOD    5   STEP   9
 AG WELL      1   LAYER   1   ROW     6   COL     4   RATE     0.00000    
 AG WELL      2   LAYER   1   ROW     6   COL     5   RATE     0.00000    
 AG WELL      3   LAYER   1   ROW     7   COL     4   RATE     0.00000    
 AG WELL      4   LAYER   1   ROW     7   COL     5   RATE     0.00000    
 AG WELL      5   LAYER   1   ROW     8   COL     4   RATE     0.00000    
 AG WELL      6   LAYER   1   ROW     8   COL     5   RATE     0.00000    
 
 

   DIVERSION SEGMENTS     PERIOD    5   STEP   9
 SEGMENT      9   RATE     3.58039    
 
 

        SW IRRIGATION     PERIOD    5   STEP   9
 SEGMENT      9   ROW     6   COL     4   RATE    0.596743    
 SEGMENT      9   ROW     6   COL     5   RATE    0.596743    
 SEGMENT      9   ROW     7   COL     4   RATE    0.596743    
 SEGMENT      9   ROW     7   COL     5   RATE    0.596743    
 SEGMENT      9   ROW     8   COL     4   RATE    0.596743    
 SEGMENT      9   ROW     8   COL     5   RATE    0.596743    
 
 

        GW IRRIGATION     PERIOD    5   STEP   9
 AG WELL      1   ROW     6   COL     4   RATE     0.00000    
 AG WELL      2   ROW     6   COL     5   RATE     0.00000    
 AG WELL      3   ROW     7   COL     4   RATE     0.00000    
 AG WELL      4   ROW     7   COL     5   RATE     0.00000    
 AG WELL      5   ROW     8   COL     4   RATE     0.00000    
 AG WELL      6   ROW     8   COL     5   RATE     0.00000    
 
1
  VOLUMETRIC BUDGET FOR AGRICULTURAL FIELDS AT  END OF TIME STEP    9, STRESS PERIOD   5
  ------------------------------------------------------------------------------

     CUMULATIVE VOLUMES      L**3       RATES FOR THIS TIME STEP      L**3/T
     ------------------                 ------------------------

           IN:                                      IN:
           ---                                      ---
               AG WELLS  =       28024.7754                 AG WELLS  =           0.0000
      DIVERSION SEGMENTS =     2309546.0000        DIVERSION SEGMENTS =           3.5804
           GW IRRIGATION =           0.0000             GW IRRIGATION =           0.0000
           SW IRRIGATION =           0.0000             SW IRRIGATION =           0.0000
        SYSTEM LOSSES GW =           0.0000          SYSTEM LOSSES GW =           0.0000
        SYSTEM LOSSES SW =           0.0000          SYSTEM LOSSES SW =           0.0000

                TOTAL IN =     2337570.7500                  TOTAL IN =           3.5804

          OUT:                                     OUT:
          ----                                     ----
               AG WELLS  =           0.0000                 AG WELLS  =           0.0000
      DIVERSION SEGMENTS =           0.0000        DIVERSION SEGMENTS =           0.0000
           GW IRRIGATION =       28024.7754             GW IRRIGATION =           0.0000
           SW IRRIGATION =     2309592.0000             SW IRRIGATION =           3.5805
        SYSTEM LOSSES GW =           0.0000          SYSTEM LOSSES GW =           0.0000
        SYSTEM LOSSES SW =           0.0000          SYSTEM LOSSES SW =           0.0000

               TOTAL OUT =     2337616.7500                 TOTAL OUT =           3.5805

                IN - OUT =         -46.0000                  IN - OUT =      -7.1287E-05

     PERCENT DISCREPANCY =          -0.00         PERCENT DISCREPANCY =          -0.00



1
  VOLUMETRIC BUDGET FOR ENTIRE MODEL AT END OF TIME STEP    9, STRESS PERIOD   5
  ------------------------------------------------------------------------------

     CUMULATIVE VOLUMES      L**3       RATES FOR THIS TIME STEP      L**3/T
     ------------------                 ------------------------

           IN:                                      IN:
           ---                                      ---
             STORAGE     =     6264087.5000               STORAGE     =           1.9096
       CONSTANT HEAD     =           0.0000         CONSTANT HEAD     =           0.0000
     HEAD DEP BOUNDS     =     2504177.2500       HEAD DEP BOUNDS     =           0.2857
      STREAM LEAKAGE     =   104835632.0000        STREAM LEAKAGE     =          11.3291
        UZF RECHARGE     =       73223.9531          UZF RECHARGE     =           0.0000
               GW ET     =           0.0000                 GW ET     =           0.0000
     SURFACE LEAKAGE     =           0.0000       SURFACE LEAKAGE     =           0.0000
           AG WELLS      =           0.0000             AG WELLS      =           0.0000

                TOTAL IN =   113677120.0000                  TOTAL IN =          13.5244

          OUT:                                     OUT:
          ----                                     ----
             STORAGE     =    18949616.0000               STORAGE     =           1.0725
       CONSTANT HEAD     =           0.0000         CONSTANT HEAD     =           0.0000
     HEAD DEP BOUNDS     =     2548318.0000       HEAD DEP BOUNDS     =           0.2929
      STREAM LEAKAGE     =    92137496.0000        STREAM LEAKAGE     =          12.1518
        UZF RECHARGE     =           0.0000          UZF RECHARGE     =           0.0000
               GW ET     =       17370.1270                 GW ET     =       7.1442E-03
     SURFACE LEAKAGE     =           0.0000       SURFACE LEAKAGE     =           0.0000
           AG WELLS      =       28024.7754             AG WELLS      =           0.0000

               TOTAL OUT =   113680824.0000                 TOTAL OUT =          13.5244

                IN - OUT =       -3704.0000                  IN - OUT =       5.1498E-05

     PERCENT DISCREPANCY =          -0.00         PERCENT DISCREPANCY =           0.00






         TIME SUMMARY AT END OF TIME STEP    9 IN STRESS PERIOD    5
                    SECONDS     MINUTES      HOURS       DAYS        YEARS
                    -----------------------------------------------------------
   TIME STEP LENGTH  87667.      1461.1      24.352      1.0147     2.77799E-03
 STRESS PERIOD TIME 7.89000E+05  13150.      219.17      9.1319     2.50019E-02
         TOTAL TIME 8.76540E+06 1.46090E+05  2434.8      101.45     0.27776    
1
 
 SOLVING FOR HEAD 
                                                   Max.-Head-Change                         Max.-Flux-Residual
  Residual-Control   Outer-Iter.   Inner-Iter.     Column Row Layer    Maximum-Head-Change  Column Row Layer    Maximum-Flux-Residual          L2-NORM 
          0                 1           2             2   13     1      -0.5345180702E-02       2   13    1        -0.3006387058E+00      0.5750344776E+00
          0                 2           2             4    7     1      -0.5559041130E-02       5    6    1        -0.2996769922E+00      0.7330962779E+00
          0                 3           2             4    7     1       0.5771880630E-02       5    6    1         0.3187377410E+00      0.7836379034E+00
          0                 4           2             4    7     1      -0.2292618973E-03       4    6    1        -0.1318933451E-01      0.3253061161E-01
          0                 5           1             4   13     1      -0.4347965028E-05       4   13    1        -0.2637553653E-03      0.6266516542E-03

    ------------------------------------------------
       NWT REQUIRED            5 OUTER ITERATIONS 
       AND A TOTAL OF          9 INNER ITERATIONS.
    ------------------------------------------------

 OUTPUT CONTROL FOR STRESS PERIOD    5   TIME STEP   10
    PRINT BUDGET
    SAVE BUDGET
 UBDSV1 SAVING "         STORAGE" ON UNIT 102 AT TIME STEP 10, STRESS PERIOD   5
 UBDSV2 SAVING "   CONSTANT HEAD" ON UNIT 102 AT TIME STEP 10, STRESS PERIOD   5
 UBDSV1 SAVING "FLOW RIGHT FACE " ON UNIT 102 AT TIME STEP 10, STRESS PERIOD   5
 UBDSV1 SAVING "FLOW FRONT FACE " ON UNIT 102 AT TIME STEP 10, STRESS PERIOD   5

  HEAD DEP BOUNDS   PERIOD    5   STEP    10
 BOUNDARY      1   LAYER   1   ROW    13   COL     1   RATE   -0.292766    
 BOUNDARY      2   LAYER   1   ROW    14   COL     9   RATE    0.285743    



 STREAM LISTING     PERIOD      5   STEP       10

 LAYER ROW COL. STREAM  RCH.  FLOW INTO     FLOW TO   FLOW OUT OF   OVRLND.     DIRECT     STREAM       STREAM     STREAM     STREAM   STREAMBED  STREAMBED
                SEG.NO.  NO.  STRM. RCH.    AQUIFER    STRM. RCH.    RUNOFF     PRECIP       ET          HEAD       DEPTH      WIDTH   CONDCTNC.   GRADIENT

   1    1    1     1     1    2.1000E+01  2.2592E-01   2.0774E+01  0.000E+00  0.000E+00  0.000E+00  1.09416E+03  1.115E+00  1.220E+01  5.490E-02  1.372E+00
   1    2    2     1     2    2.0774E+01  3.4916E-01   2.0425E+01  0.000E+00  0.000E+00  0.000E+00  1.08917E+03  1.110E+00  1.214E+01  8.495E-02  1.370E+00
   1    3    3     1     3    2.0425E+01  2.9709E-01   2.0128E+01  0.000E+00  0.000E+00  0.000E+00  1.08352E+03  1.105E+00  1.206E+01  7.238E-02  1.368E+00
   1    3    4     1     4    2.0128E+01  2.7299E-01   1.9855E+01  0.000E+00  0.000E+00  0.000E+00  1.07851E+03  1.100E+00  1.200E+01  6.659E-02  1.367E+00
   1    4    5     2     1    1.7855E+01  3.1056E-01   1.7544E+01  0.000E+00  0.000E+00  0.000E+00  1.07292E+03  9.816E-01  1.200E+01  7.800E-02  1.327E+00
   1    5    6     2     2    1.7544E+01  2.3834E-01   1.7306E+01  0.000E+00  0.000E+00  0.000E+00  1.06748E+03  9.724E-01  1.200E+01  6.000E-02  1.324E+00
   1    6    6     2     3    1.7306E+01  2.3787E-01   1.7068E+01  0.000E+00  0.000E+00  0.000E+00  1.06276E+03  9.644E-01  1.200E+01  6.000E-02  1.321E+00
   1    7    6     2     4    1.7068E+01  2.3738E-01   1.6831E+01  0.000E+00  0.000E+00  0.000E+00  1.05803E+03  9.564E-01  1.200E+01  6.000E-02  1.319E+00
   1    8    6     2     5    1.6831E+01  2.3690E-01   1.6594E+01  0.000E+00  0.000E+00  0.000E+00  1.05331E+03  9.483E-01  1.200E+01  6.000E-02  1.316E+00
   1    3    5     3     1    2.0000E+00  2.8252E-01   1.7175E+00  0.000E+00  0.000E+00  0.000E+00  1.07555E+03  1.909E+00  9.636E+00  7.227E-02  1.955E+00
   1    3    6     3     2    1.7175E+00  2.4905E-01   1.4684E+00  0.000E+00  0.000E+00  0.000E+00  1.07264E+03  1.727E+00  8.909E+00  6.682E-02  1.864E+00
   1    3    7     3     3    1.4684E+00  1.9718E-01   1.2712E+00  0.000E+00  0.000E+00  0.000E+00  1.06987E+03  1.555E+00  8.218E+00  5.547E-02  1.777E+00
   1    4    8     3     4    1.2712E+00  2.2567E-01   1.0456E+00  0.000E+00  0.000E+00  0.000E+00  1.06682E+03  1.364E+00  7.455E+00  6.709E-02  1.682E+00
   1    5    8     3     5    1.0456E+00  1.5790E-01   8.8768E-01  0.000E+00  0.000E+00  0.000E+00  1.06362E+03  1.164E+00  6.655E+00  4.991E-02  1.582E+00
   1    6    8     3     6    8.8768E-01  5.5980E-02   8.3170E-01  0.000E+00  0.000E+00  0.000E+00  1.06158E+03  1.036E+00  6.145E+00  1.844E-02  1.518E+00
   1    5   10     4     1    1.0000E+01  9.0919E-02   9.9091E+00  0.000E+00  0.000E+00  0.000E+00  1.07836E+03  6.368E-01  1.000E+01  2.500E-02  1.212E+00
   1    5    9     4     2    9.9091E+00  1.8158E-01   9.7275E+00  0.000E+00  0.000E+00  0.000E+00  1.07154E+03  6.315E-01  1.000E+01  5.000E-02  1.211E+00
   1    6    8     4     3    9.7275E+00  1.2689E-01   9.6006E+00  0.000E+00  0.000E+00  0.000E+00  1.06381E+03  6.256E-01  1.000E+01  3.500E-02  1.209E+00
   1    6    8     5     1    1.0432E+01  2.2686E-01   1.0205E+01  0.000E+00  0.000E+00  0.000E+00  1.05868E+03  6.790E-01  1.542E+01  6.166E-02  1.226E+00
   1    7    7     5     2    1.0205E+01  2.7894E-01   9.9265E+00  0.000E+00  0.000E+00  0.000E+00  1.05417E+03  6.732E-01  1.519E+01  7.594E-02  1.224E+00
   1    8    7     5     3    9.9265E+00  1.9221E-01   9.7343E+00  0.000E+00  0.000E+00  0.000E+00  1.04992E+03  6.676E-01  1.497E+01  5.241E-02  1.223E+00
   1    8    6     5     4    9.7343E+00  1.3577E-01   9.5985E+00  0.000E+00  0.000E+00  0.000E+00  1.04691E+03  6.637E-01  1.482E+01  3.706E-02  1.221E+00
   1    9    6     6     1    2.2615E+01  2.4876E-01   2.2367E+01  0.000E+00  0.000E+00  0.000E+00  1.04387E+03  1.146E+00  1.200E+01  6.000E-02  1.382E+00
   1   10    7     6     2    2.2367E+01  2.4830E-01   2.2118E+01  0.000E+00  0.000E+00  0.000E+00  1.03932E+03  1.138E+00  1.200E+01  6.000E-02  1.379E+00
   1   11    7     6     3    2.2118E+01  2.4784E-01   2.1870E+01  0.000E+00  0.000E+00  0.000E+00  1.03477E+03  1.131E+00  1.200E+01  6.000E-02  1.377E+00
   1   12    7     6     4    2.1870E+01  2.4739E-01   2.1623E+01  0.000E+00  0.000E+00  0.000E+00  1.03021E+03  1.123E+00  1.200E+01  6.000E-02  1.374E+00
   1   13    7     6     5    2.1623E+01 -2.4877E-02   2.1648E+01  0.000E+00  0.000E+00  0.000E+00  1.02703E+03  1.120E+00  1.200E+01  2.400E-01 -3.455E-02
   1   14    9     7     1    1.5000E+02  1.3356E+00   1.4866E+02  0.000E+00  0.000E+00  0.000E+00  1.03987E+03  2.288E+00  5.529E+01  5.593E-01  7.960E-01
   1   13    8     7     2    1.4866E+02  1.8257E+00   1.4684E+02  0.000E+00  0.000E+00  0.000E+00  1.03478E+03  2.279E+00  5.526E+01  6.148E-01  9.899E-01
   1   13    7     7     3    1.4684E+02  1.4283E+00   1.4541E+02  0.000E+00  0.000E+00  0.000E+00  1.02969E+03  2.271E+00  5.522E+01  5.585E-01  8.525E-01
   1   13    6     8     1    1.6706E+02  8.4485E-01   1.6621E+02  0.000E+00  0.000E+00  0.000E+00  1.02481E+03  2.930E+00  4.249E+01  4.330E-01  6.504E-01
   1   13    5     8     2    1.6621E+02  9.5684E-02   1.6612E+02  0.000E+00  0.000E+00  0.000E+00  1.01855E+03  2.927E+00  4.244E+01  4.325E-01  7.374E-02
   1   13    4     8     3    1.6612E+02 -2.9025E+00   1.6902E+02  0.000E+00  0.000E+00  0.000E+00  1.01231E+03  2.936E+00  4.258E+01  4.339E+00 -2.230E-01
   1   13    3     8     4    1.6902E+02 -4.0102E+00   1.7303E+02  0.000E+00  0.000E+00  0.000E+00  1.00608E+03  2.959E+00  4.290E+01  4.372E+00 -3.058E-01
   1   13    2     8     5    1.7303E+02 -2.9234E+00   1.7595E+02  0.000E+00  0.000E+00  0.000E+00  9.99856E+02  2.981E+00  4.323E+01  4.405E+00 -2.212E-01
   1   13    1     8     6    1.7595E+02 -2.2105E+00   1.7816E+02  0.000E+00  0.000E+00  0.000E+00  9.94873E+02  2.998E+00  4.347E+01  2.658E+00 -2.773E-01
   1    8    6     9     1    3.5771E+00  0.0000E+00   3.5771E+00  0.000E+00  0.000E+00  0.000E+00  1.07997E+03  1.223E+00  4.000E+00  0.000E+00  1.408E+00
   1    8    5     9     2    3.5771E+00  0.0000E+00   3.5771E+00  0.000E+00  0.000E+00  0.000E+00  1.07947E+03  1.223E+00  4.000E+00  0.000E+00  1.408E+00



 UBDSV3 SAVING "           GW ET" ON UNIT  61 AT TIME STEP 10, STRESS PERIOD   5
 UBDSV3 SAVING "    UZF RECHARGE" ON UNIT  61 AT TIME STEP 10, STRESS PERIOD   5
 UBDSV3 SAVING " SURFACE LEAKAGE" ON UNIT  61 AT TIME STEP 10, STRESS PERIOD   5
 UBDSV3 SAVING "       HORT+DUNN" ON UNIT  61 AT TIME STEP 10, STRESS PERIOD   5
 UBDSV3 SAVING "  STORAGE CHANGE" ON UNIT  61 AT TIME STEP 10, STRESS PERIOD   5


UNSATURATED ZONE PACKAGE VOLUMETRIC BUDGET FOR  TIME STEP    10 STRESS PERIOD    5
  ------------------------------------------------------------------------------



     CUMULATIVE VOLUMES      L**3       RATES FOR THIS TIME STEP      L**3/T
     ------------------                 ------------------------

           IN:                                      IN:
           ---                                      ---
        INFILTRATION =    41335497.3235          INFILTRATION =           7.9847

          OUT:                                     OUT:
          ----                                     ----
              UZF ET =    22026860.7554                UZF ET =          10.2910
        UZF RECHARGE =       73224.0000          UZF RECHARGE =       0.0000E+00

            IN - OUT =    19235412.5681              IN - OUT =          -2.3064

          STORAGE:                                 STORAGE:
          --------                                 --------
      STORAGE CHANGE =    19235412.2407        STORAGE CHANGE =          -2.3064

 PERCENT DISCREPANCY IS DIFFERENCE BETWEEN IN-OUT MINUS CHANGE IN STORAGE
 DIVIDED BY THE AVERAGE OF IN AND OUT TIMES 100

 PERCENT DISCREPANCY =           0.00     PERCENT DISCREPANCY =           0.00






 

            AG WELLS      PERIOD    5   STEP  10
 AG WELL      1   LAYER   1   ROW     6   COL     4   RATE   -1.010100E-04
 AG WELL      2   LAYER   1   ROW     6   COL     5   RATE   -1.010100E-04
 AG WELL      3   LAYER   1   ROW     7   COL     4   RATE   -1.010100E-04
 AG WELL      4   LAYER   1   ROW     7   COL     5   RATE   -1.010100E-04
 AG WELL      5   LAYER   1   ROW     8   COL     4   RATE   -1.010100E-04
 AG WELL      6   LAYER   1   ROW     8   COL     5   RATE   -1.010100E-04
 
 

   DIVERSION SEGMENTS     PERIOD    5   STEP  10
 SEGMENT      9   RATE     3.57711    
 
 

        SW IRRIGATION     PERIOD    5   STEP  10
 SEGMENT      9   ROW     6   COL     4   RATE    0.596096    
 SEGMENT      9   ROW     6   COL     5   RATE    0.596096    
 SEGMENT      9   ROW     7   COL     4   RATE    0.596096    
 SEGMENT      9   ROW     7   COL     5   RATE    0.596096    
 SEGMENT      9   ROW     8   COL     4   RATE    0.596096    
 SEGMENT      9   ROW     8   COL     5   RATE    0.596096    
 
 

        GW IRRIGATION     PERIOD    5   STEP  10
 AG WELL      1   ROW     6   COL     4   RATE    1.010100E-04
 AG WELL      2   ROW     6   COL     5   RATE    1.010100E-04
 AG WELL      3   ROW     7   COL     4   RATE    1.010100E-04
 AG WELL      4   ROW     7   COL     5   RATE    1.010100E-04
 AG WELL      5   ROW     8   COL     4   RATE    1.010100E-04
 AG WELL      6   ROW     8   COL     5   RATE    1.010100E-04
 
1
  VOLUMETRIC BUDGET FOR AGRICULTURAL FIELDS AT  END OF TIME STEP   10, STRESS PERIOD   5
  ------------------------------------------------------------------------------

     CUMULATIVE VOLUMES      L**3       RATES FOR THIS TIME STEP      L**3/T
     ------------------                 ------------------------

           IN:                                      IN:
           ---                                      ---
               AG WELLS  =       28077.9062                 AG WELLS  =       6.0606E-04
      DIVERSION SEGMENTS =     2623139.5000        DIVERSION SEGMENTS =           3.5771
           GW IRRIGATION =           0.0000             GW IRRIGATION =           0.0000
           SW IRRIGATION =           0.0000             SW IRRIGATION =           0.0000
        SYSTEM LOSSES GW =           0.0000          SYSTEM LOSSES GW =           0.0000
        SYSTEM LOSSES SW =           0.0000          SYSTEM LOSSES SW =           0.0000

                TOTAL IN =     2651217.5000                  TOTAL IN =           3.5777

          OUT:                                     OUT:
          ----                                     ----
               AG WELLS  =           0.0000                 AG WELLS  =           0.0000
      DIVERSION SEGMENTS =           0.0000        DIVERSION SEGMENTS =           0.0000
           GW IRRIGATION =       28077.9062             GW IRRIGATION =       6.0606E-04
           SW IRRIGATION =     2623191.7500             SW IRRIGATION =           3.5772
        SYSTEM LOSSES GW =           0.0000          SYSTEM LOSSES GW =           0.0000
        SYSTEM LOSSES SW =           0.0000          SYSTEM LOSSES SW =           0.0000

               TOTAL OUT =     2651269.7500                 TOTAL OUT =           3.5778

                IN - OUT =         -52.2500                  IN - OUT =      -7.1287E-05

     PERCENT DISCREPANCY =          -0.00         PERCENT DISCREPANCY =          -0.00



1
  VOLUMETRIC BUDGET FOR ENTIRE MODEL AT END OF TIME STEP   10, STRESS PERIOD   5
  ------------------------------------------------------------------------------

     CUMULATIVE VOLUMES      L**3       RATES FOR THIS TIME STEP      L**3/T
     ------------------                 ------------------------

           IN:                                      IN:
           ---                                      ---
             STORAGE     =     6422431.5000               STORAGE     =           1.8062
       CONSTANT HEAD     =           0.0000         CONSTANT HEAD     =           0.0000
     HEAD DEP BOUNDS     =     2529227.5000       HEAD DEP BOUNDS     =           0.2857
      STREAM LEAKAGE     =   105828904.0000        STREAM LEAKAGE     =          11.3301
        UZF RECHARGE     =       73223.9531          UZF RECHARGE     =           0.0000
               GW ET     =           0.0000                 GW ET     =           0.0000
     SURFACE LEAKAGE     =           0.0000       SURFACE LEAKAGE     =           0.0000
           AG WELLS      =           0.0000             AG WELLS      =           0.0000

                TOTAL IN =   114853784.0000                  TOTAL IN =          13.4221

          OUT:                                     OUT:
          ----                                     ----
             STORAGE     =    19042184.0000               STORAGE     =           1.0559
       CONSTANT HEAD     =           0.0000         CONSTANT HEAD     =           0.0000
     HEAD DEP BOUNDS     =     2573983.7500       HEAD DEP BOUNDS     =           0.2928
      STREAM LEAKAGE     =    93195760.0000        STREAM LEAKAGE     =          12.0715
        UZF RECHARGE     =           0.0000          UZF RECHARGE     =           0.0000
               GW ET     =       17482.2871                 GW ET     =       1.2794E-03
     SURFACE LEAKAGE     =           0.0000       SURFACE LEAKAGE     =           0.0000
           AG WELLS      =       28077.9062             AG WELLS      =       6.0606E-04

               TOTAL OUT =   114857488.0000                 TOTAL OUT =          13.4220

                IN - OUT =       -3704.0000                  IN - OUT =       5.2452E-05

     PERCENT DISCREPANCY =          -0.00         PERCENT DISCREPANCY =           0.00






         TIME SUMMARY AT END OF TIME STEP   10 IN STRESS PERIOD    5
                    SECONDS     MINUTES      HOURS       DAYS        YEARS
                    -----------------------------------------------------------
   TIME STEP LENGTH  87667.      1461.1      24.352      1.0147     2.77799E-03
 STRESS PERIOD TIME 8.76667E+05  14611.      243.52      10.147     2.77799E-02
         TOTAL TIME 8.85306E+06 1.47551E+05  2459.2      102.47     0.28054    
1
 
 SOLVING FOR HEAD 
                                                   Max.-Head-Change                         Max.-Flux-Residual
  Residual-Control   Outer-Iter.   Inner-Iter.     Column Row Layer    Maximum-Head-Change  Column Row Layer    Maximum-Flux-Residual          L2-NORM 
          0                 1           2             2   13     1      -0.4852350907E-02       2   13    1        -0.2729170065E+00      0.5292821857E+00
          0                 2           2             4    7     1      -0.5571499746E-02       5    6    1        -0.3002901244E+00      0.7348620135E+00
          0                 3           2             4    7     1       0.5787310530E-02       5    6    1         0.3195879874E+00      0.7856906060E+00
          0                 4           2             4    7     1      -0.2302830542E-03       4    6    1        -0.1306975065E-01      0.3264797002E-01
          0                 5           1             4   13     1      -0.4101221427E-05       4   13    1        -0.2487645834E-03      0.5874466074E-03

    ------------------------------------------------
       NWT REQUIRED            5 OUTER ITERATIONS 
       AND A TOTAL OF          9 INNER ITERATIONS.
    ------------------------------------------------

 NO OUTPUT CONTROL FOR STRESS PERIOD    5   TIME STEP   11
 
 SOLVING FOR HEAD 
                                                   Max.-Head-Change                         Max.-Flux-Residual
  Residual-Control   Outer-Iter.   Inner-Iter.     Column Row Layer    Maximum-Head-Change  Column Row Layer    Maximum-Flux-Residual          L2-NORM 
          0                 1           2             2   13     1      -0.4397171597E-02       2   13    1        -0.2472510438E+00      0.4899554190E+00
          0                 2           2             4    7     1      -0.5573230151E-02       5    6    1        -0.3003287162E+00      0.7351163118E+00
          0                 3           2             4    7     1       0.5788977058E-02       5    6    1         0.3196761584E+00      0.7858983840E+00
          0                 4           2             4    7     1      -0.2303493673E-03       4    6    1        -0.1307351156E-01      0.3265386217E-01
          0                 5           1             4   13     1      -0.4083933036E-05       4   13    1        -0.2477679845E-03      0.5852941786E-03

    ------------------------------------------------
       NWT REQUIRED            5 OUTER ITERATIONS 
       AND A TOTAL OF          9 INNER ITERATIONS.
    ------------------------------------------------

 NO OUTPUT CONTROL FOR STRESS PERIOD    5   TIME STEP   12
 
 SOLVING FOR HEAD 
                                                   Max.-Head-Change                         Max.-Flux-Residual
  Residual-Control   Outer-Iter.   Inner-Iter.     Column Row Layer    Maximum-Head-Change  Column Row Layer    Maximum-Flux-Residual          L2-NORM 
          0                 1           2             2   13     1      -0.3975661725E-02       2   13    1        -0.2235073504E+00      0.4551628399E+00
          0                 2           2             4    7     1      -0.5557743868E-02       5    6    1        -0.2994477482E+00      0.7331746365E+00
          0                 3           2             4    7     1       0.5772086130E-02       5    6    1         0.3187401447E+00      0.7835781937E+00
          0                 4           2             4    7     1      -0.2295547202E-03       4    6    1        -0.1302841954E-01      0.3253495688E-01
          0                 5           1             4   13     1      -0.4096311166E-05       4   13    1        -0.2485049881E-03      0.5935132468E-03

    ------------------------------------------------
       NWT REQUIRED            5 OUTER ITERATIONS 
       AND A TOTAL OF          9 INNER ITERATIONS.
    ------------------------------------------------

 NO OUTPUT CONTROL FOR STRESS PERIOD    5   TIME STEP   13
 
 SOLVING FOR HEAD 
                                                   Max.-Head-Change                         Max.-Flux-Residual
  Residual-Control   Outer-Iter.   Inner-Iter.     Column Row Layer    Maximum-Head-Change  Column Row Layer    Maximum-Flux-Residual          L2-NORM 
          0                 1           2             2   13     1      -0.3585983290E-02       2   13    1        -0.2015588797E+00      0.4240678534E+00
          0                 2           2             4    7     1      -0.5566740565E-02       5    6    1        -0.2998833375E+00      0.7344686631E+00
          0                 3           2             4    7     1       0.5781481176E-02       5    6    1         0.3192554768E+00      0.7848279155E+00
          0                 4           2             4    7     1      -0.2299502662E-03       4    6    1        -0.1305086668E-01      0.3258965102E-01
          0                 5           1             4   13     1      -0.4082057873E-05       4   13    1        -0.2471717253E-03      0.5929155394E-03

    ------------------------------------------------
       NWT REQUIRED            5 OUTER ITERATIONS 
       AND A TOTAL OF          9 INNER ITERATIONS.
    ------------------------------------------------

 NO OUTPUT CONTROL FOR STRESS PERIOD    5   TIME STEP   14
 
 SOLVING FOR HEAD 
                                                   Max.-Head-Change                         Max.-Flux-Residual
  Residual-Control   Outer-Iter.   Inner-Iter.     Column Row Layer    Maximum-Head-Change  Column Row Layer    Maximum-Flux-Residual          L2-NORM 
          0                 1           2             2   13     1      -0.3225260420E-02       2   13    1        -0.1812433470E+00      0.3963456070E+00
          0                 2           2             4    7     1      -0.5576877468E-02       5    6    1        -0.3003832495E+00      0.7359232601E+00
          0                 3           2             4    7     1       0.5792450738E-02       5    6    1         0.3198579543E+00      0.7862923869E+00
          0                 4           2             4    7     1      -0.2304875890E-03       4    6    1        -0.1308135869E-01      0.3266093325E-01
          0                 5           1             4   13     1      -0.4018428146E-05       4   13    1        -0.2433061400E-03      0.5825426823E-03

    ------------------------------------------------
       NWT REQUIRED            5 OUTER ITERATIONS 
       AND A TOTAL OF          9 INNER ITERATIONS.
    ------------------------------------------------

 NO OUTPUT CONTROL FOR STRESS PERIOD    5   TIME STEP   15
 
 SOLVING FOR HEAD 
                                                   Max.-Head-Change                         Max.-Flux-Residual
  Residual-Control   Outer-Iter.   Inner-Iter.     Column Row Layer    Maximum-Head-Change  Column Row Layer    Maximum-Flux-Residual          L2-NORM 
          0                 1           2             1   13     1      -0.2916993897E-02       2   13    1        -0.1624397288E+00      0.3717449539E+00
          0                 2           2             4    7     1      -0.5576552256E-02       5    6    1        -0.3003241937E+00      0.7360018921E+00
          0                 3           2             4    7     1       0.5792029133E-02       5    6    1         0.3198317394E+00      0.7862132241E+00
          0                 4           2             4    7     1      -0.2304708133E-03       4    6    1        -0.1308040656E-01      0.3265425652E-01
          0                 5           1             4   13     1      -0.4000668420E-05       4   13    1        -0.2422401703E-03      0.5807416921E-03

    ------------------------------------------------
       NWT REQUIRED            5 OUTER ITERATIONS 
       AND A TOTAL OF          9 INNER ITERATIONS.
    ------------------------------------------------

 NO OUTPUT CONTROL FOR STRESS PERIOD    5   TIME STEP   16
 
 SOLVING FOR HEAD 
                                                   Max.-Head-Change                         Max.-Flux-Residual
  Residual-Control   Outer-Iter.   Inner-Iter.     Column Row Layer    Maximum-Head-Change  Column Row Layer    Maximum-Flux-Residual          L2-NORM 
          0                 1           2             1   13     1      -0.2760021808E-02       1   13    1        -0.1502035324E+00      0.3500242874E+00
          0                 2           2             4    7     1      -0.5553802363E-02       5    6    1        -0.2990635442E+00      0.7331222645E+00
          0                 3           2             4    7     1       0.5767275809E-02       5    6    1         0.3184623828E+00      0.7828349296E+00
          0                 4           2             4    7     1      -0.2293065937E-03       4    6    1        -0.1301434007E-01      0.3248438545E-01
          0                 5           1             4   13     1      -0.4060850055E-05       4   13    1        -0.2458846666E-03      0.5963561442E-03

    ------------------------------------------------
       NWT REQUIRED            5 OUTER ITERATIONS 
       AND A TOTAL OF          9 INNER ITERATIONS.
    ------------------------------------------------

 NO OUTPUT CONTROL FOR STRESS PERIOD    5   TIME STEP   17
 
 SOLVING FOR HEAD 
                                                   Max.-Head-Change                         Max.-Flux-Residual
  Residual-Control   Outer-Iter.   Inner-Iter.     Column Row Layer    Maximum-Head-Change  Column Row Layer    Maximum-Flux-Residual          L2-NORM 
          0                 1           2             1   13     1      -0.2608762314E-02       1   13    1        -0.1420227088E+00      0.3309668874E+00
          0                 2           2             4    7     1      -0.5553116470E-02       5    6    1        -0.2989906714E+00      0.7331539663E+00
          0                 3           2             4    7     1       0.5763123177E-02       5    6    1         0.3182305705E+00      0.7822557770E+00
          0                 4           2             4    7     1      -0.2285944853E-03       4    6    1        -0.1297392794E-01      0.3237506990E-01
          0                 5           1             4   13     1      -0.4347282462E-05       4   13    1        -0.2632120431E-03      0.6635478032E-03

    ------------------------------------------------
       NWT REQUIRED            5 OUTER ITERATIONS 
       AND A TOTAL OF          9 INNER ITERATIONS.
    ------------------------------------------------

 NO OUTPUT CONTROL FOR STRESS PERIOD    5   TIME STEP   18
 
 SOLVING FOR HEAD 
                                                   Max.-Head-Change                         Max.-Flux-Residual
  Residual-Control   Outer-Iter.   Inner-Iter.     Column Row Layer    Maximum-Head-Change  Column Row Layer    Maximum-Flux-Residual          L2-NORM 
          0                 1           2             1   13     1      -0.2463012578E-02       1   13    1        -0.1341361141E+00      0.3143308911E+00
          0                 2           2             4    7     1      -0.5560606872E-02       5    6    1        -0.2993597049E+00      0.7342646283E+00
          0                 3           2             4    7     1       0.5770581035E-02       5    6    1         0.3186399622E+00      0.7832511373E+00
          0                 4           2             4    7     1      -0.2288443272E-03       4    6    1        -0.1298810416E-01      0.3240637577E-01
          0                 5           1             4   13     1      -0.4394888226E-05       4   13    1        -0.2660996552E-03      0.6701915487E-03

    ------------------------------------------------
       NWT REQUIRED            5 OUTER ITERATIONS 
       AND A TOTAL OF          9 INNER ITERATIONS.
    ------------------------------------------------

 NO OUTPUT CONTROL FOR STRESS PERIOD    5   TIME STEP   19
 
 SOLVING FOR HEAD 
                                                   Max.-Head-Change                         Max.-Flux-Residual
  Residual-Control   Outer-Iter.   Inner-Iter.     Column Row Layer    Maximum-Head-Change  Column Row Layer    Maximum-Flux-Residual          L2-NORM 
          0                 1           2             1   13     1      -0.2322635367E-02       1   13    1        -0.1265368353E+00      0.2998916728E+00
          0                 2           2             4    7     1      -0.5533889774E-02       4    6    1        -0.2979054815E+00      0.7308560437E+00
          0                 3           2             4    7     1       0.5740193900E-02       4    6    1         0.3169621924E+00      0.7791137272E+00
          0                 4           2             4    7     1      -0.2272290621E-03       4    6    1        -0.1289644087E-01      0.3217096025E-01
          0                 5           1             4   13     1      -0.4591906299E-05       4   13    1        -0.2780352743E-03      0.7169559111E-03

    ------------------------------------------------
       NWT REQUIRED            5 OUTER ITERATIONS 
       AND A TOTAL OF          9 INNER ITERATIONS.
    ------------------------------------------------

 NO OUTPUT CONTROL FOR STRESS PERIOD    5   TIME STEP   20
 
 SOLVING FOR HEAD 
                                                   Max.-Head-Change                         Max.-Flux-Residual
  Residual-Control   Outer-Iter.   Inner-Iter.     Column Row Layer    Maximum-Head-Change  Column Row Layer    Maximum-Flux-Residual          L2-NORM 
          0                 1           2             1   13     1      -0.2187678189E-02       1   13    1        -0.1192277717E+00      0.2874714431E+00
          0                 2           2             4    7     1      -0.5546619305E-02       4    6    1        -0.2985885685E+00      0.7326524213E+00
          0                 3           2             4    7     1       0.5751916514E-02       4    6    1         0.3176093489E+00      0.7806912785E+00
          0                 4           2             4    7     1      -0.2274504414E-03       4    6    1        -0.1290900077E-01      0.3219751562E-01
          0                 5           1             4   13     1      -0.4716590275E-05       4   13    1        -0.2855720622E-03      0.7477865315E-03

    ------------------------------------------------
       NWT REQUIRED            5 OUTER ITERATIONS 
       AND A TOTAL OF          9 INNER ITERATIONS.
    ------------------------------------------------

 NO OUTPUT CONTROL FOR STRESS PERIOD    5   TIME STEP   21
 
 SOLVING FOR HEAD 
                                                   Max.-Head-Change                         Max.-Flux-Residual
  Residual-Control   Outer-Iter.   Inner-Iter.     Column Row Layer    Maximum-Head-Change  Column Row Layer    Maximum-Flux-Residual          L2-NORM 
          0                 1           2             1    1     1       0.2137058647E-02       1   13    1        -0.1121914954E+00      0.2768443320E+00
          0                 2           2             4    7     1      -0.5552627797E-02       4    6    1        -0.2989105787E+00      0.7335574271E+00
          0                 3           2             4    7     1       0.5766811081E-02       4    6    1         0.3184316219E+00      0.7826907366E+00
          0                 4           2             4    7     1      -0.2294673582E-03       4    6    1        -0.1302345444E-01      0.3249327779E-01
          0                 5           1             4   13     1      -0.3936711374E-05       4   13    1        -0.2383702977E-03      0.5737342978E-03

    ------------------------------------------------
       NWT REQUIRED            5 OUTER ITERATIONS 
       AND A TOTAL OF          9 INNER ITERATIONS.
    ------------------------------------------------

 NO OUTPUT CONTROL FOR STRESS PERIOD    5   TIME STEP   22
 
 SOLVING FOR HEAD 
                                                   Max.-Head-Change                         Max.-Flux-Residual
  Residual-Control   Outer-Iter.   Inner-Iter.     Column Row Layer    Maximum-Head-Change  Column Row Layer    Maximum-Flux-Residual          L2-NORM 
          0                 1           2             1    1     1       0.2134661249E-02       1    1    1         0.1108231903E+00      0.2678324155E+00
          0                 2           2             4    7     1      -0.5553039078E-02       4    6    1        -0.2989313233E+00      0.7337184185E+00
          0                 3           2             4    7     1       0.5767215858E-02       4    6    1         0.3184538731E+00      0.7827323636E+00
          0                 4           2             4    7     1      -0.2294834650E-03       4    6    1        -0.1302436419E-01      0.3249230892E-01
          0                 5           1             4   13     1      -0.3941119532E-05       4   13    1        -0.2386328224E-03      0.5744104532E-03

    ------------------------------------------------
       NWT REQUIRED            5 OUTER ITERATIONS 
       AND A TOTAL OF          9 INNER ITERATIONS.
    ------------------------------------------------

 NO OUTPUT CONTROL FOR STRESS PERIOD    5   TIME STEP   23
 
 SOLVING FOR HEAD 
                                                   Max.-Head-Change                         Max.-Flux-Residual
  Residual-Control   Outer-Iter.   Inner-Iter.     Column Row Layer    Maximum-Head-Change  Column Row Layer    Maximum-Flux-Residual          L2-NORM 
          0                 1           2             1    1     1       0.2132271665E-02       1    1    1         0.1106988880E+00      0.2602523820E+00
          0                 2           2             4    7     1      -0.5542998440E-02       4    6    1        -0.2983905819E+00      0.7324946427E+00
          0                 3           2             4    7     1       0.5749124922E-02       4    6    1         0.3174549741E+00      0.7802726469E+00
          0                 4           2             4    7     1      -0.2275116145E-03       4    6    1        -0.1291246140E-01      0.3220015539E-01
          0                 5           1             4   13     1      -0.4583547827E-05       4   13    1        -0.2774935929E-03      0.7242103275E-03

    ------------------------------------------------
       NWT REQUIRED            5 OUTER ITERATIONS 
       AND A TOTAL OF          9 INNER ITERATIONS.
    ------------------------------------------------

 NO OUTPUT CONTROL FOR STRESS PERIOD    5   TIME STEP   24
 
 SOLVING FOR HEAD 
                                                   Max.-Head-Change                         Max.-Flux-Residual
  Residual-Control   Outer-Iter.   Inner-Iter.     Column Row Layer    Maximum-Head-Change  Column Row Layer    Maximum-Flux-Residual          L2-NORM 
          0                 1           2             1    1     1       0.2129889846E-02       1    1    1         0.1105749909E+00      0.2539416580E+00
          0                 2           2             4    7     1      -0.5553943639E-02       4    6    1        -0.2989771863E+00      0.7340385796E+00
          0                 3           2             4    7     1       0.5761053506E-02       4    6    1         0.3181134573E+00      0.7818800038E+00
          0                 4           2             4    7     1      -0.2280737943E-03       4    6    1        -0.1294435936E-01      0.3227843477E-01
          0                 5           1             4   13     1      -0.4543833106E-05       4   13    1        -0.2751222964E-03      0.7133818866E-03

    ------------------------------------------------
       NWT REQUIRED            5 OUTER ITERATIONS 
       AND A TOTAL OF          9 INNER ITERATIONS.
    ------------------------------------------------

 NO OUTPUT CONTROL FOR STRESS PERIOD    5   TIME STEP   25
 
 SOLVING FOR HEAD 
                                                   Max.-Head-Change                         Max.-Flux-Residual
  Residual-Control   Outer-Iter.   Inner-Iter.     Column Row Layer    Maximum-Head-Change  Column Row Layer    Maximum-Flux-Residual          L2-NORM 
          0                 1           2             1    1     1       0.2127515793E-02       1    1    1         0.1104514963E+00      0.2487317969E+00
          0                 2           2             4    7     1      -0.5553997435E-02       4    6    1        -0.2989786470E+00      0.7341389668E+00
          0                 3           2             4    7     1       0.5761113656E-02       4    6    1         0.3181166765E+00      0.7819305475E+00
          0                 4           2             4    7     1      -0.2280789881E-03       4    6    1        -0.1294464975E-01      0.3219149890E-01
          0                 5           1             2   13     1      -0.4212798555E-05       2   13    1        -0.2502774905E-03      0.6739319467E-03

    ------------------------------------------------
       NWT REQUIRED            5 OUTER ITERATIONS 
       AND A TOTAL OF          9 INNER ITERATIONS.
    ------------------------------------------------

 NO OUTPUT CONTROL FOR STRESS PERIOD    5   TIME STEP   26
 
 SOLVING FOR HEAD 
                                                   Max.-Head-Change                         Max.-Flux-Residual
  Residual-Control   Outer-Iter.   Inner-Iter.     Column Row Layer    Maximum-Head-Change  Column Row Layer    Maximum-Flux-Residual          L2-NORM 
          0                 1           2             1    1     1       0.2125127542E-02       1    1    1         0.1103272662E+00      0.2444846978E+00
          0                 2           2             4    7     1      -0.5554108069E-02       4    6    1        -0.2989829581E+00      0.7342425899E+00
          0                 3           2             4    7     1       0.5761257026E-02       4    6    1         0.3181244758E+00      0.7819413880E+00
          0                 4           2             4    7     1      -0.2280902944E-03       4    6    1        -0.1294528634E-01      0.3219170828E-01
          0                 5           1             2   13     1      -0.4211543477E-05       2   13    1        -0.2502125162E-03      0.6727656042E-03

    ------------------------------------------------
       NWT REQUIRED            5 OUTER ITERATIONS 
       AND A TOTAL OF          9 INNER ITERATIONS.
    ------------------------------------------------

 NO OUTPUT CONTROL FOR STRESS PERIOD    5   TIME STEP   27
 
 SOLVING FOR HEAD 
                                                   Max.-Head-Change                         Max.-Flux-Residual
  Residual-Control   Outer-Iter.   Inner-Iter.     Column Row Layer    Maximum-Head-Change  Column Row Layer    Maximum-Flux-Residual          L2-NORM 
          0                 1           2             1    1     1       0.2122768962E-02       1    1    1         0.1102045764E+00      0.2410696360E+00
          0                 2           2             4    7     1      -0.5554275954E-02       4    6    1        -0.2989902427E+00      0.7343488403E+00
          0                 3           2             4    7     1       0.5761484906E-02       4    6    1         0.3181369341E+00      0.7819640707E+00
          0                 4           2             4    7     1      -0.2281077645E-03       4    6    1        -0.1294627247E-01      0.3219286303E-01
          0                 5           1             2   13     1      -0.4228743944E-05       2   13    1        -0.2512510891E-03      0.6719740907E-03

    ------------------------------------------------
       NWT REQUIRED            5 OUTER ITERATIONS 
       AND A TOTAL OF          9 INNER ITERATIONS.
    ------------------------------------------------

 NO OUTPUT CONTROL FOR STRESS PERIOD    5   TIME STEP   28
 
 SOLVING FOR HEAD 
                                                   Max.-Head-Change                         Max.-Flux-Residual
  Residual-Control   Outer-Iter.   Inner-Iter.     Column Row Layer    Maximum-Head-Change  Column Row Layer    Maximum-Flux-Residual          L2-NORM 
          0                 1           2             4   13     1       0.4541957834E-02       4   13    1         0.2616215135E+00      0.5284213277E+00
          0                 2           2             4    7     1      -0.5554512968E-02       4    6    1        -0.2990006367E+00      0.7432217231E+00
          0                 3           2             4    7     1       0.5761800983E-02       4    6    1         0.3181542192E+00      0.7817263639E+00
          0                 4           2             4    7     1      -0.2281322457E-03       4    6    1        -0.1294765468E-01      0.3197997554E-01
          0                 5           1             4    7     1       0.3717036016E-05       5    6    1         0.2168155374E-03      0.5808515810E-03

    ------------------------------------------------
       NWT REQUIRED            5 OUTER ITERATIONS 
       AND A TOTAL OF          9 INNER ITERATIONS.
    ------------------------------------------------

 NO OUTPUT CONTROL FOR STRESS PERIOD    5   TIME STEP   29
 
 SOLVING FOR HEAD 
                                                   Max.-Head-Change                         Max.-Flux-Residual
  Residual-Control   Outer-Iter.   Inner-Iter.     Column Row Layer    Maximum-Head-Change  Column Row Layer    Maximum-Flux-Residual          L2-NORM 
          0                 1           2             4   13     1       0.2050904065E-01       4   13    1         0.1184441525E+01      0.2132659259E+01
          0                 2           2             4    7     1      -0.5554850700E-02       4    6    1        -0.2990151204E+00      0.7818029674E+00
          0                 3           2             4    7     1       0.5769014141E-02       4    6    1         0.3185521978E+00      0.7821311805E+00
          0                 4           2             4    7     1      -0.2295550205E-03       4    6    1        -0.1302838385E-01      0.3212020218E-01
          0                 5           1             4    7     1       0.2830512072E-05       5    6    1         0.1651089292E-03      0.4279793336E-03

    ------------------------------------------------
       NWT REQUIRED            5 OUTER ITERATIONS 
       AND A TOTAL OF          9 INNER ITERATIONS.
    ------------------------------------------------

 NO OUTPUT CONTROL FOR STRESS PERIOD    5   TIME STEP   30



 STREAM LISTING     PERIOD      5   STEP       30

 LAYER ROW COL. STREAM  RCH.  FLOW INTO     FLOW TO   FLOW OUT OF   OVRLND.     DIRECT     STREAM       STREAM     STREAM     STREAM   STREAMBED  STREAMBED
                SEG.NO.  NO.  STRM. RCH.    AQUIFER    STRM. RCH.    RUNOFF     PRECIP       ET          HEAD       DEPTH      WIDTH   CONDCTNC.   GRADIENT

   1    1    1     1     1    7.4250E+01  4.1989E-01   7.3830E+01  0.000E+00  0.000E+00  0.000E+00  1.09474E+03  1.690E+00  1.990E+01  8.954E-02  1.563E+00
   1    2    2     1     2    7.3830E+01  6.5045E-01   7.3180E+01  0.000E+00  0.000E+00  0.000E+00  1.08974E+03  1.684E+00  1.984E+01  1.389E-01  1.561E+00
   1    3    3     1     3    7.3180E+01  5.5490E-01   7.2625E+01  0.000E+00  0.000E+00  0.000E+00  1.08410E+03  1.677E+00  1.977E+01  1.186E-01  1.559E+00
   1    3    4     1     4    7.2625E+01  5.1113E-01   7.2114E+01  0.000E+00  0.000E+00  0.000E+00  1.07908E+03  1.671E+00  1.972E+01  1.094E-01  1.557E+00
   1    4    5     2     1    7.0114E+01  4.0857E-01   6.9705E+01  0.000E+00  0.000E+00  0.000E+00  1.07417E+03  2.238E+00  1.200E+01  7.800E-02  1.746E+00
   1    5    6     2     2    6.9705E+01  3.1387E-01   6.9391E+01  0.000E+00  0.000E+00  0.000E+00  1.06874E+03  2.231E+00  1.200E+01  6.000E-02  1.744E+00
   1    6    6     2     3    6.9391E+01  3.1350E-01   6.9078E+01  0.000E+00  0.000E+00  0.000E+00  1.06402E+03  2.225E+00  1.200E+01  6.000E-02  1.742E+00
   1    7    6     2     4    6.9078E+01  3.1314E-01   6.8765E+01  0.000E+00  0.000E+00  0.000E+00  1.05929E+03  2.219E+00  1.200E+01  6.000E-02  1.740E+00
   1    8    6     2     5    6.8765E+01  3.1278E-01   6.8452E+01  0.000E+00  0.000E+00  0.000E+00  1.05457E+03  2.213E+00  1.200E+01  6.000E-02  1.738E+00
   1    3    5     3     1    2.0000E+00  2.8252E-01   1.7175E+00  0.000E+00  0.000E+00  0.000E+00  1.07555E+03  1.909E+00  9.636E+00  7.227E-02  1.955E+00
   1    3    6     3     2    1.7175E+00  2.4905E-01   1.4684E+00  0.000E+00  0.000E+00  0.000E+00  1.07264E+03  1.727E+00  8.909E+00  6.682E-02  1.864E+00
   1    3    7     3     3    1.4684E+00  1.9718E-01   1.2712E+00  0.000E+00  0.000E+00  0.000E+00  1.06987E+03  1.555E+00  8.218E+00  5.547E-02  1.777E+00
   1    4    8     3     4    1.2712E+00  2.2567E-01   1.0456E+00  0.000E+00  0.000E+00  0.000E+00  1.06682E+03  1.364E+00  7.455E+00  6.709E-02  1.682E+00
   1    5    8     3     5    1.0456E+00  1.5790E-01   8.8768E-01  0.000E+00  0.000E+00  0.000E+00  1.06362E+03  1.164E+00  6.655E+00  4.991E-02  1.582E+00
   1    6    8     3     6    8.8768E-01  5.5980E-02   8.3170E-01  0.000E+00  0.000E+00  0.000E+00  1.06158E+03  1.036E+00  6.145E+00  1.844E-02  1.518E+00
   1    5   10     4     1    1.0000E+01  9.0919E-02   9.9091E+00  0.000E+00  0.000E+00  0.000E+00  1.07836E+03  6.368E-01  1.000E+01  2.500E-02  1.212E+00
   1    5    9     4     2    9.9091E+00  1.8158E-01   9.7275E+00  0.000E+00  0.000E+00  0.000E+00  1.07154E+03  6.315E-01  1.000E+01  5.000E-02  1.211E+00
   1    6    8     4     3    9.7275E+00  1.2689E-01   9.6006E+00  0.000E+00  0.000E+00  0.000E+00  1.06381E+03  6.256E-01  1.000E+01  3.500E-02  1.209E+00
   1    6    8     5     1    1.0432E+01  2.2686E-01   1.0205E+01  0.000E+00  0.000E+00  0.000E+00  1.05868E+03  6.790E-01  1.542E+01  6.166E-02  1.226E+00
   1    7    7     5     2    1.0205E+01  2.7894E-01   9.9265E+00  0.000E+00  0.000E+00  0.000E+00  1.05417E+03  6.732E-01  1.519E+01  7.594E-02  1.224E+00
   1    8    7     5     3    9.9265E+00  1.9221E-01   9.7343E+00  0.000E+00  0.000E+00  0.000E+00  1.04992E+03  6.676E-01  1.497E+01  5.241E-02  1.223E+00
   1    8    6     5     4    9.7343E+00  1.3577E-01   9.5985E+00  0.000E+00  0.000E+00  0.000E+00  1.04691E+03  6.637E-01  1.482E+01  3.706E-02  1.221E+00
   1    9    6     6     1    7.4479E+01  3.2086E-01   7.4158E+01  0.000E+00  0.000E+00  0.000E+00  1.04507E+03  2.348E+00  1.200E+01  6.000E-02  1.783E+00
   1   10    7     6     2    7.4158E+01  3.2049E-01   7.3838E+01  0.000E+00  0.000E+00  0.000E+00  1.04052E+03  2.342E+00  1.200E+01  6.000E-02  1.781E+00
   1   11    7     6     3    7.3838E+01  3.2013E-01   7.3518E+01  0.000E+00  0.000E+00  0.000E+00  1.03597E+03  2.335E+00  1.200E+01  6.000E-02  1.778E+00
   1   12    7     6     4    7.3518E+01  3.1976E-01   7.3198E+01  0.000E+00  0.000E+00  0.000E+00  1.03142E+03  2.329E+00  1.200E+01  6.000E-02  1.776E+00
   1   13    7     6     5    7.3198E+01  2.6489E-02   7.3171E+01  0.000E+00  0.000E+00  0.000E+00  1.02824E+03  2.326E+00  1.200E+01  2.400E-02  3.679E-01
   1   14    9     7     1    1.5000E+02  1.3357E+00   1.4866E+02  0.000E+00  0.000E+00  0.000E+00  1.03987E+03  2.288E+00  5.529E+01  5.593E-01  7.961E-01
   1   13    8     7     2    1.4866E+02  1.8241E+00   1.4684E+02  0.000E+00  0.000E+00  0.000E+00  1.03478E+03  2.279E+00  5.526E+01  6.148E-01  9.890E-01
   1   13    7     7     3    1.4684E+02  1.4288E+00   1.4541E+02  0.000E+00  0.000E+00  0.000E+00  1.02969E+03  2.271E+00  5.522E+01  5.585E-01  8.528E-01
   1   13    6     8     1    2.1858E+02  1.0888E+00   2.1749E+02  0.000E+00  0.000E+00  0.000E+00  1.02512E+03  3.241E+00  4.699E+01  4.789E-01  7.579E-01
   1   13    5     8     2    2.1749E+02  2.6250E-01   2.1723E+02  0.000E+00  0.000E+00  0.000E+00  1.01886E+03  3.237E+00  4.694E+01  4.783E-01  1.829E-01
   1   13    4     8     3    2.1723E+02 -1.6327E+00   2.1886E+02  0.000E+00  0.000E+00  0.000E+00  1.01262E+03  3.241E+00  4.700E+01  4.789E+00 -1.136E-01
   1   13    3     8     4    2.1886E+02 -2.8552E+00   2.2172E+02  0.000E+00  0.000E+00  0.000E+00  1.00638E+03  3.254E+00  4.718E+01  4.807E+00 -1.980E-01
   1   13    2     8     5    2.2172E+02 -1.6434E+00   2.2336E+02  0.000E+00  0.000E+00  0.000E+00  1.00014E+03  3.266E+00  4.736E+01  4.826E+00 -1.135E-01
   1   13    1     8     6    2.2336E+02 -1.4835E+00   2.2485E+02  0.000E+00  0.000E+00  0.000E+00  9.95150E+02  3.275E+00  4.748E+01  2.903E+00 -1.703E-01
   1    8    6     9     1    3.5715E+00  0.0000E+00   3.5715E+00  0.000E+00  0.000E+00  0.000E+00  1.07997E+03  1.222E+00  4.000E+00  0.000E+00  1.407E+00
   1    8    5     9     2    3.5715E+00  0.0000E+00   3.5715E+00  0.000E+00  0.000E+00  0.000E+00  1.07947E+03  1.222E+00  4.000E+00  0.000E+00  1.407E+00





UNSATURATED ZONE PACKAGE VOLUMETRIC BUDGET FOR  TIME STEP    30 STRESS PERIOD    5
  ------------------------------------------------------------------------------



     CUMULATIVE VOLUMES      L**3       RATES FOR THIS TIME STEP      L**3/T
     ------------------                 ------------------------

           IN:                                      IN:
           ---                                      ---
        INFILTRATION =    55333546.8899          INFILTRATION =           7.9790

          OUT:                                     OUT:
          ----                                     ----
              UZF ET =    35804060.4819                UZF ET =           7.8609
        UZF RECHARGE =       73224.0000          UZF RECHARGE =       0.0000E+00

            IN - OUT =    19456262.4080              IN - OUT =           0.1181

          STORAGE:                                 STORAGE:
          --------                                 --------
      STORAGE CHANGE =    19456262.0202        STORAGE CHANGE =           0.1181

 PERCENT DISCREPANCY IS DIFFERENCE BETWEEN IN-OUT MINUS CHANGE IN STORAGE
 DIVIDED BY THE AVERAGE OF IN AND OUT TIMES 100

 PERCENT DISCREPANCY =           0.00     PERCENT DISCREPANCY =           0.00






1
  VOLUMETRIC BUDGET FOR AGRICULTURAL FIELDS AT  END OF TIME STEP   30, STRESS PERIOD   5
  ------------------------------------------------------------------------------

     CUMULATIVE VOLUMES      L**3       RATES FOR THIS TIME STEP      L**3/T
     ------------------                 ------------------------

           IN:                                      IN:
           ---                                      ---
               AG WELLS  =       29478.1953                 AG WELLS  =           0.0000
      DIVERSION SEGMENTS =     8893247.0000        DIVERSION SEGMENTS =           3.5715
           GW IRRIGATION =           0.0000             GW IRRIGATION =           0.0000
           SW IRRIGATION =           0.0000             SW IRRIGATION =           0.0000
        SYSTEM LOSSES GW =           0.0000          SYSTEM LOSSES GW =           0.0000
        SYSTEM LOSSES SW =           0.0000          SYSTEM LOSSES SW =           0.0000

                TOTAL IN =     8922725.0000                  TOTAL IN =           3.5715

          OUT:                                     OUT:
          ----                                     ----
               AG WELLS  =           0.0000                 AG WELLS  =           0.0000
      DIVERSION SEGMENTS =           0.0000        DIVERSION SEGMENTS =           0.0000
           GW IRRIGATION =       29478.1953             GW IRRIGATION =           0.0000
           SW IRRIGATION =     8893426.0000             SW IRRIGATION =           3.5715
        SYSTEM LOSSES GW =           0.0000          SYSTEM LOSSES GW =           0.0000
        SYSTEM LOSSES SW =           0.0000          SYSTEM LOSSES SW =           0.0000

               TOTAL OUT =     8922904.0000                 TOTAL OUT =           3.5715

                IN - OUT =        -179.0000                  IN - OUT =      -7.1287E-05

     PERCENT DISCREPANCY =          -0.00         PERCENT DISCREPANCY =          -0.00



1
  VOLUMETRIC BUDGET FOR ENTIRE MODEL AT END OF TIME STEP   30, STRESS PERIOD   5
  ------------------------------------------------------------------------------

     CUMULATIVE VOLUMES      L**3       RATES FOR THIS TIME STEP      L**3/T
     ------------------                 ------------------------

           IN:                                      IN:
           ---                                      ---
             STORAGE     =     8408565.0000               STORAGE     =           0.3983
       CONSTANT HEAD     =           0.0000         CONSTANT HEAD     =           0.0000
     HEAD DEP BOUNDS     =     3030241.0000       HEAD DEP BOUNDS     =           0.2858
      STREAM LEAKAGE     =   125940840.0000        STREAM LEAKAGE     =          13.4474
        UZF RECHARGE     =       73223.9531          UZF RECHARGE     =           0.0000
               GW ET     =           0.0000                 GW ET     =           0.0000
     SURFACE LEAKAGE     =           0.0000       SURFACE LEAKAGE     =           0.0000
           AG WELLS      =           0.0000             AG WELLS      =           0.0000

                TOTAL IN =   137452864.0000                  TOTAL IN =          14.1315

          OUT:                                     OUT:
          ----                                     ----
             STORAGE     =    21249126.0000               STORAGE     =           6.2254
       CONSTANT HEAD     =           0.0000         CONSTANT HEAD     =           0.0000
     HEAD DEP BOUNDS     =     3085105.2500       HEAD DEP BOUNDS     =           0.2911
      STREAM LEAKAGE     =   113075272.0000        STREAM LEAKAGE     =           7.6150
        UZF RECHARGE     =           0.0000          UZF RECHARGE     =           0.0000
               GW ET     =       17482.2871                 GW ET     =           0.0000
     SURFACE LEAKAGE     =           0.0000       SURFACE LEAKAGE     =           0.0000
           AG WELLS      =       29478.1953             AG WELLS      =           0.0000

               TOTAL OUT =   137456464.0000                 TOTAL OUT =          14.1315

                IN - OUT =       -3600.0000                  IN - OUT =       2.2888E-05

     PERCENT DISCREPANCY =          -0.00         PERCENT DISCREPANCY =           0.00






         TIME SUMMARY AT END OF TIME STEP   30 IN STRESS PERIOD    5
                    SECONDS     MINUTES      HOURS       DAYS        YEARS
                    -----------------------------------------------------------
   TIME STEP LENGTH  87667.      1461.1      24.352      1.0147     2.77799E-03
 STRESS PERIOD TIME 2.63000E+06  43833.      730.56      30.440     8.33397E-02
         TOTAL TIME 1.06064E+07 1.76773E+05  2946.2      122.76     0.33610    
1
1
                            STRESS PERIOD NO.    6, LENGTH =   2630000.    
                            -----------------------------------------------

                              NUMBER OF TIME STEPS =    30

                               MULTIPLIER FOR DELT =     1.000

                            INITIAL TIME STEP SIZE =   87666.66    

 REUSING NON-PARAMETER GHB CELLS FROM LAST STRESS PERIOD

      2 GHB CELLS

 REUSING STREAM SEGMENT DATA FROM LAST STRESS PERIOD



            AREAL INFILTRATION RATE
 READING ON UNIT   19 WITH FORMAT: (10F4.0)            

            1           2           3           4           5           6           7           8           9          10
 ........................................................................................................................
   1   1.2000E-09   0.000       0.000       0.000       0.000       0.000       0.000       0.000       0.000       0.000    
   2   2.1000E-09  2.0000E-09  8.0000E-10  8.5000E-09   0.000       0.000       0.000       0.000       0.000       0.000    
   3   5.0000E-10  1.1000E-09  8.8000E-09  5.5000E-09   0.000       0.000       0.000       0.000       0.000       0.000    
   4   8.5000E-09  1.1000E-09  1.1000E-09  1.1000E-09  2.0000E-09   0.000       0.000       0.000       0.000       0.000    
   5   8.5000E-09  1.1000E-09  1.1000E-09  1.1000E-09  1.1000E-09   0.000       0.000       0.000       0.000       0.000    
   6   8.5000E-09  5.2000E-09  2.1000E-09  1.1000E-09  1.5000E-09   0.000       0.000       0.000       0.000       0.000    
   7   8.5000E-09  5.2000E-09  2.1000E-09  1.2000E-09  2.0000E-09   0.000       0.000       0.000       0.000       0.000    
   8   5.0000E-10  5.2000E-09  2.1000E-09  1.2000E-09  5.0000E-09   0.000       0.000       0.000       0.000       0.000    
   9   5.0000E-10  5.2000E-09  2.1000E-09  1.2000E-09  5.0000E-09   0.000       0.000       0.000       0.000       0.000    
  10   5.0000E-10  5.2000E-09  2.1000E-09  1.2000E-09  5.8000E-09   0.000       0.000       0.000       0.000       0.000    
  11   1.0000E-10  1.1000E-09  1.1000E-09  1.2000E-09  5.0000E-09   0.000       0.000       0.000       0.000       0.000    
  12   1.1000E-09  1.1000E-09  1.1000E-09  1.1000E-09  2.0000E-09   0.000       0.000       0.000       0.000       0.000    
  13   1.1000E-09  2.2000E-09  2.2000E-09  2.1000E-09  1.0000E-09   0.000       0.000       0.000       0.000       0.000    
  14   2.0000E-10  5.5000E-09  5.5000E-09  5.2000E-09  1.0000E-09   0.000       0.000       0.000       0.000       0.000    
  15    0.000      8.8000E-09  8.8000E-09   0.000       0.000       0.000       0.000       0.000       0.000       0.000    

                  ET RATE =  5.000000E-08

 USING ET EXTINCTION DEPTH FROM PREVIOUS STRESS PERIOD. CURRENT PERIOD IS:       6

 USING EXTINCTION WATER CONTENT FROM PREVIOUS STRESS PERIOD. CURRENT PERIOD IS:       6

 USING AIR ENTRY PRESSURE FROM PREVIOUS STRESS PERIOD. CURRENT PERIOD IS:       6

 USING ROOT PRESSURE HEAD FROM PREVIOUS STRESS PERIOD. CURRENT PERIOD IS:       6

 USING ROOT ACTIVITY FROM PREVIOUS STRESS PERIOD. CURRENT PERIOD IS:       6

 PROCESSING AG STRESS PERIOD DATA

 READING AG STRESS PERIOD DATA

 READING IRRIGATION SEGMENT

 READING IRRIGATION WELL

 READING SUPPLEMENTAL WELL

 END PROCESSING AG STRESS PERIOD DATA OPTIONS
 
 SOLVING FOR HEAD 
                                                   Max.-Head-Change                         Max.-Flux-Residual
  Residual-Control   Outer-Iter.   Inner-Iter.     Column Row Layer    Maximum-Head-Change  Column Row Layer    Maximum-Flux-Residual          L2-NORM 
          0                 1           2             4   13     1       0.1861267635E-01       4   13    1         0.1074368600E+01      0.1984029669E+01
          0                 2           2             4    7     1      -0.1144586896E-01       4    6    1        -0.6154071416E+00      0.1543409650E+01
          0                 3           2             4    7     1       0.1190092234E-01       4    6    1         0.6570919976E+00      0.1614445334E+01
          0                 4           2             4    7     1      -0.4735511804E-03       5    6    1        -0.2687493545E-01      0.6637453473E-01
          0                 5           1             4    7     1       0.5839087632E-05       5    6    1         0.3405882017E-03      0.9043860783E-03

    ------------------------------------------------
       NWT REQUIRED            5 OUTER ITERATIONS 
       AND A TOTAL OF          9 INNER ITERATIONS.
    ------------------------------------------------

 NO OUTPUT CONTROL FOR STRESS PERIOD    6   TIME STEP    1
 
 SOLVING FOR HEAD 
                                                   Max.-Head-Change                         Max.-Flux-Residual
  Residual-Control   Outer-Iter.   Inner-Iter.     Column Row Layer    Maximum-Head-Change  Column Row Layer    Maximum-Flux-Residual          L2-NORM 
          0                 1           2             4   13     1       0.1706380663E-01       4   13    1         0.9844917865E+00      0.1861945599E+01
          0                 2           2             4    7     1      -0.1234834563E-01       5    6    1        -0.6638774315E+00      0.1659512463E+01
          0                 3           2             4    7     1       0.1284033075E-01       5    6    1         0.7089519261E+00      0.1742146283E+01
          0                 4           2             4    7     1      -0.5110267862E-03       4    6    1        -0.2941391637E-01      0.7181187414E-01
          0                 5           1             4    7     1       0.6301177282E-05       4    6    1         0.3728642191E-03      0.9704036755E-03

    ------------------------------------------------
       NWT REQUIRED            5 OUTER ITERATIONS 
       AND A TOTAL OF          9 INNER ITERATIONS.
    ------------------------------------------------

 NO OUTPUT CONTROL FOR STRESS PERIOD    6   TIME STEP    2
 
 SOLVING FOR HEAD 
                                                   Max.-Head-Change                         Max.-Flux-Residual
  Residual-Control   Outer-Iter.   Inner-Iter.     Column Row Layer    Maximum-Head-Change  Column Row Layer    Maximum-Flux-Residual          L2-NORM 
          0                 1           2             2   13     1       0.1575201824E-01       4   13    1         0.9052325754E+00      0.1753619957E+01
          0                 2           2             4    7     1      -0.1117674269E-01       5    6    1        -0.6010323201E+00      0.1506152405E+01
          0                 3           2             4    7     1       0.1162061122E-01       5    6    1         0.6416226078E+00      0.1576383833E+01
          0                 4           2             4    7     1      -0.4623972291E-03       5    6    1        -0.2624243951E-01      0.6480466997E-01
          0                 5           1             4    7     1       0.5701554696E-05       5    6    1         0.3325725306E-03      0.8734583164E-03

    ------------------------------------------------
       NWT REQUIRED            5 OUTER ITERATIONS 
       AND A TOTAL OF          9 INNER ITERATIONS.
    ------------------------------------------------

 NO OUTPUT CONTROL FOR STRESS PERIOD    6   TIME STEP    3
 
 SOLVING FOR HEAD 
                                                   Max.-Head-Change                         Max.-Flux-Residual
  Residual-Control   Outer-Iter.   Inner-Iter.     Column Row Layer    Maximum-Head-Change  Column Row Layer    Maximum-Flux-Residual          L2-NORM 
          0                 1           2             2   13     1       0.1471206603E-01       2   13    1         0.8334520600E+00      0.1646148278E+01
          0                 2           2             4    7     1      -0.1117808380E-01       5    6    1        -0.6011806159E+00      0.1503890001E+01
          0                 3           2             4    7     1       0.1162188794E-01       5    6    1         0.6416984344E+00      0.1576587997E+01
          0                 4           2             4    7     1      -0.4624480314E-03       5    6    1        -0.2624554085E-01      0.6481573989E-01
          0                 5           1             4    7     1       0.5702180859E-05       5    6    1         0.3326118522E-03      0.8737406675E-03

    ------------------------------------------------
       NWT REQUIRED            5 OUTER ITERATIONS 
       AND A TOTAL OF          9 INNER ITERATIONS.
    ------------------------------------------------

 NO OUTPUT CONTROL FOR STRESS PERIOD    6   TIME STEP    4
 
 SOLVING FOR HEAD 
                                                   Max.-Head-Change                         Max.-Flux-Residual
  Residual-Control   Outer-Iter.   Inner-Iter.     Column Row Layer    Maximum-Head-Change  Column Row Layer    Maximum-Flux-Residual          L2-NORM 
          0                 1           2             2   13     1       0.1375444749E-01       2   13    1         0.7792898958E+00      0.1541407816E+01
          0                 2           2             4    7     1      -0.1121642211E-01       5    6    1        -0.6033093669E+00      0.1504023183E+01
          0                 3           2             4    7     1       0.1166165648E-01       5    6    1         0.6438989194E+00      0.1582087276E+01
          0                 4           2             4    7     1      -0.4640304744E-03       5    6    1        -0.2633554106E-01      0.6504874788E-01
          0                 5           1             4    7     1       0.5721693396E-05       5    6    1         0.3337524254E-03      0.8779204692E-03

    ------------------------------------------------
       NWT REQUIRED            5 OUTER ITERATIONS 
       AND A TOTAL OF          9 INNER ITERATIONS.
    ------------------------------------------------

 NO OUTPUT CONTROL FOR STRESS PERIOD    6   TIME STEP    5
 
 SOLVING FOR HEAD 
                                                   Max.-Head-Change                         Max.-Flux-Residual
  Residual-Control   Outer-Iter.   Inner-Iter.     Column Row Layer    Maximum-Head-Change  Column Row Layer    Maximum-Flux-Residual          L2-NORM 
          0                 1           2             2   13     1       0.1287100356E-01       2   13    1         0.7293008236E+00      0.1445519300E+01
          0                 2           2             4    7     1      -0.1123012149E-01       5    6    1        -0.6041102164E+00      0.1503932845E+01
          0                 3           2             4    7     1       0.1167576162E-01       5    6    1         0.6446822150E+00      0.1584033691E+01
          0                 4           2             4    7     1      -0.4645917368E-03       5    6    1        -0.2636757799E-01      0.6513081441E-01
          0                 5           1             4    7     1       0.5728613896E-05       5    6    1         0.3341584256E-03      0.8795541236E-03

    ------------------------------------------------
       NWT REQUIRED            5 OUTER ITERATIONS 
       AND A TOTAL OF          9 INNER ITERATIONS.
    ------------------------------------------------

 NO OUTPUT CONTROL FOR STRESS PERIOD    6   TIME STEP    6
 
 SOLVING FOR HEAD 
                                                   Max.-Head-Change                         Max.-Flux-Residual
  Residual-Control   Outer-Iter.   Inner-Iter.     Column Row Layer    Maximum-Head-Change  Column Row Layer    Maximum-Flux-Residual          L2-NORM 
          0                 1           2             2   13     1       0.1205609131E-01       2   13    1         0.6831721137E+00      0.1361905032E+01
          0                 2           2             4    7     1      -0.1126617146E-01       5    6    1        -0.6061086830E+00      0.1507063997E+01
          0                 3           2             4    7     1       0.1171311581E-01       5    6    1         0.6467488872E+00      0.1589131648E+01
          0                 4           2             4    7     1      -0.4660781090E-03       5    6    1        -0.2645210526E-01      0.6534226136E-01
          0                 5           1             4    7     1       0.5746941316E-05       5    6    1         0.3352296462E-03      0.8822714528E-03

    ------------------------------------------------
       NWT REQUIRED            5 OUTER ITERATIONS 
       AND A TOTAL OF          9 INNER ITERATIONS.
    ------------------------------------------------

 NO OUTPUT CONTROL FOR STRESS PERIOD    6   TIME STEP    7
 
 SOLVING FOR HEAD 
                                                   Max.-Head-Change                         Max.-Flux-Residual
  Residual-Control   Outer-Iter.   Inner-Iter.     Column Row Layer    Maximum-Head-Change  Column Row Layer    Maximum-Flux-Residual          L2-NORM 
          0                 1           2             2   13     1       0.1130528171E-01       2   13    1         0.6406573144E+00      0.1288910546E+01
          0                 2           2             4    7     1      -0.1126832220E-01       5    6    1        -0.6062821112E+00      0.1505961620E+01
          0                 3           2             4    7     1       0.1171516993E-01       5    6    1         0.6468663486E+00      0.1589435951E+01
          0                 4           2             4    7     1      -0.4661598452E-03       5    6    1        -0.2645690943E-01      0.6535657875E-01
          0                 5           1             4    7     1       0.5747949225E-05       5    6    1         0.3352905264E-03      0.8837982559E-03

    ------------------------------------------------
       NWT REQUIRED            5 OUTER ITERATIONS 
       AND A TOTAL OF          9 INNER ITERATIONS.
    ------------------------------------------------

 NO OUTPUT CONTROL FOR STRESS PERIOD    6   TIME STEP    8
 
 SOLVING FOR HEAD 
                                                   Max.-Head-Change                         Max.-Flux-Residual
  Residual-Control   Outer-Iter.   Inner-Iter.     Column Row Layer    Maximum-Head-Change  Column Row Layer    Maximum-Flux-Residual          L2-NORM 
          0                 1           2             2   13     1       0.1061332263E-01       2   13    1         0.6014627365E+00      0.1225010611E+01
          0                 2           2             4    7     1      -0.1127640125E-01       5    6    1        -0.6067681125E+00      0.1505829258E+01
          0                 3           2             4    7     1       0.1172338205E-01       5    6    1         0.6473233827E+00      0.1590573283E+01
          0                 4           2             4    7     1      -0.4664866163E-03       5    6    1        -0.2647560222E-01      0.6540454611E-01
          0                 5           1             4    7     1       0.5751978175E-05       5    6    1         0.3355274403E-03      0.8837075406E-03

    ------------------------------------------------
       NWT REQUIRED            5 OUTER ITERATIONS 
       AND A TOTAL OF          9 INNER ITERATIONS.
    ------------------------------------------------

 NO OUTPUT CONTROL FOR STRESS PERIOD    6   TIME STEP    9
 
 SOLVING FOR HEAD 
                                                   Max.-Head-Change                         Max.-Flux-Residual
  Residual-Control   Outer-Iter.   Inner-Iter.     Column Row Layer    Maximum-Head-Change  Column Row Layer    Maximum-Flux-Residual          L2-NORM 
          0                 1           2             2   13     1       0.9976002876E-02       2   13    1         0.5653528447E+00      0.1168959753E+01
          0                 2           2             4    7     1      -0.1127907244E-01       5    6    1        -0.6069614524E+00      0.1505145041E+01
          0                 3           2             4    7     1       0.1172595312E-01       5    6    1         0.6474688216E+00      0.1590942613E+01
          0                 4           2             4    7     1      -0.4665889223E-03       5    6    1        -0.2648155068E-01      0.6542087423E-01
          0                 5           1             4    7     1       0.5753240358E-05       5    6    1         0.3356027933E-03      0.8835988381E-03

    ------------------------------------------------
       NWT REQUIRED            5 OUTER ITERATIONS 
       AND A TOTAL OF          9 INNER ITERATIONS.
    ------------------------------------------------

 NO OUTPUT CONTROL FOR STRESS PERIOD    6   TIME STEP   10
 
 SOLVING FOR HEAD 
                                                   Max.-Head-Change                         Max.-Flux-Residual
  Residual-Control   Outer-Iter.   Inner-Iter.     Column Row Layer    Maximum-Head-Change  Column Row Layer    Maximum-Flux-Residual          L2-NORM 
          0                 1           2             2   13     1       0.9389250828E-02       2   13    1         0.5320996026E+00      0.1119671748E+01
          0                 2           2             4    7     1      -0.1129402910E-01       5    6    1        -0.6078107838E+00      0.1506214777E+01
          0                 3           2             4    7     1       0.1174130122E-01       5    6    1         0.6483194072E+00      0.1593043434E+01
          0                 4           2             4    7     1      -0.4671996436E-03       5    6    1        -0.2651633980E-01      0.6550827814E-01
          0                 5           1             4    7     1       0.5760770891E-05       5    6    1         0.3360436972E-03      0.8854277377E-03

    ------------------------------------------------
       NWT REQUIRED            5 OUTER ITERATIONS 
       AND A TOTAL OF          9 INNER ITERATIONS.
    ------------------------------------------------

 NO OUTPUT CONTROL FOR STRESS PERIOD    6   TIME STEP   11
 
 SOLVING FOR HEAD 
                                                   Max.-Head-Change                         Max.-Flux-Residual
  Residual-Control   Outer-Iter.   Inner-Iter.     Column Row Layer    Maximum-Head-Change  Column Row Layer    Maximum-Flux-Residual          L2-NORM 
          0                 1           2             2   13     1       0.8849471682E-02       2   13    1         0.5015014113E+00      0.1076245332E+01
          0                 2           2             4    7     1      -0.1130245016E-01       5    6    1        -0.6083054225E+00      0.1506537974E+01
          0                 3           2             4    7     1       0.1174983568E-01       5    6    1         0.6487935565E+00      0.1594218024E+01
          0                 4           2             4    7     1      -0.4675392413E-03       5    6    1        -0.2653573258E-01      0.6555782911E-01
          0                 5           1             4    7     1       0.5764957782E-05       5    6    1         0.3362894486E-03      0.8863452244E-03

    ------------------------------------------------
       NWT REQUIRED            5 OUTER ITERATIONS 
       AND A TOTAL OF          9 INNER ITERATIONS.
    ------------------------------------------------

 NO OUTPUT CONTROL FOR STRESS PERIOD    6   TIME STEP   12
 
 SOLVING FOR HEAD 
                                                   Max.-Head-Change                         Max.-Flux-Residual
  Residual-Control   Outer-Iter.   Inner-Iter.     Column Row Layer    Maximum-Head-Change  Column Row Layer    Maximum-Flux-Residual          L2-NORM 
          0                 1           2             2   13     1       0.8353078278E-02       2   13    1         0.4733569053E+00      0.1037869210E+01
          0                 2           2             4    7     1      -0.1130713982E-01       5    6    1        -0.6085948741E+00      0.1506461351E+01
          0                 3           2             4    7     1       0.1175445187E-01       5    6    1         0.6490510445E+00      0.1594858682E+01
          0                 4           2             4    7     1      -0.4677229257E-03       5    6    1        -0.2654626389E-01      0.6558490126E-01
          0                 5           1             4    7     1       0.5767222722E-05       5    6    1         0.3364229237E-03      0.8871309332E-03

    ------------------------------------------------
       NWT REQUIRED            5 OUTER ITERATIONS 
       AND A TOTAL OF          9 INNER ITERATIONS.
    ------------------------------------------------

 NO OUTPUT CONTROL FOR STRESS PERIOD    6   TIME STEP   13
 
 SOLVING FOR HEAD 
                                                   Max.-Head-Change                         Max.-Flux-Residual
  Residual-Control   Outer-Iter.   Inner-Iter.     Column Row Layer    Maximum-Head-Change  Column Row Layer    Maximum-Flux-Residual          L2-NORM 
          0                 1           2             2   13     1       0.7896552085E-02       2   13    1         0.4474680231E+00      0.1003866918E+01
          0                 2           2             4    7     1      -0.1129623351E-01       5    6    1        -0.6080448805E+00      0.1504415131E+01
          0                 3           2             4    7     1       0.1174285269E-01       5    6    1         0.6484131607E+00      0.1593297863E+01
          0                 4           2             4    7     1      -0.4672613792E-03       5    6    1        -0.2652017433E-01      0.6552167396E-01
          0                 5           1             4    7     1       0.5761531920E-05       5    6    1         0.3360922897E-03      0.8862016999E-03

    ------------------------------------------------
       NWT REQUIRED            5 OUTER ITERATIONS 
       AND A TOTAL OF          9 INNER ITERATIONS.
    ------------------------------------------------

 NO OUTPUT CONTROL FOR STRESS PERIOD    6   TIME STEP   14
 
 SOLVING FOR HEAD 
                                                   Max.-Head-Change                         Max.-Flux-Residual
  Residual-Control   Outer-Iter.   Inner-Iter.     Column Row Layer    Maximum-Head-Change  Column Row Layer    Maximum-Flux-Residual          L2-NORM 
          0                 1           2             2   13     1       0.7476627631E-02       2   13    1         0.4236510684E+00      0.9736144606E+00
          0                 2           2             4    7     1      -0.1128761748E-01       5    6    1        -0.6076148122E+00      0.1502739678E+01
          0                 3           2             4    7     1       0.1173363022E-01       5    6    1         0.6479062784E+00      0.1592057761E+01
          0                 4           2             4    7     1      -0.4668944047E-03       5    6    1        -0.2649944278E-01      0.6547132012E-01
          0                 5           1             4    7     1       0.5757006969E-05       5    6    1         0.3358295512E-03      0.8852867669E-03

    ------------------------------------------------
       NWT REQUIRED            5 OUTER ITERATIONS 
       AND A TOTAL OF          9 INNER ITERATIONS.
    ------------------------------------------------

 NO OUTPUT CONTROL FOR STRESS PERIOD    6   TIME STEP   15
 
 SOLVING FOR HEAD 
                                                   Max.-Head-Change                         Max.-Flux-Residual
  Residual-Control   Outer-Iter.   Inner-Iter.     Column Row Layer    Maximum-Head-Change  Column Row Layer    Maximum-Flux-Residual          L2-NORM 
          0                 1           2             2   13     1       0.7090500489E-02       2   13    1         0.4017479808E+00      0.9466335392E+00
          0                 2           2             4    7     1      -0.1130442604E-01       5    6    1        -0.6085489250E+00      0.1504479029E+01
          0                 3           2             4    7     1       0.1175086528E-01       5    6    1         0.6488600139E+00      0.1594406967E+01
          0                 4           2             4    7     1      -0.4675802106E-03       5    6    1        -0.2653845071E-01      0.6556847162E-01
          0                 5           1             4    7     1       0.5765463417E-05       5    6    1         0.3363239093E-03      0.8867323328E-03

    ------------------------------------------------
       NWT REQUIRED            5 OUTER ITERATIONS 
       AND A TOTAL OF          9 INNER ITERATIONS.
    ------------------------------------------------

 NO OUTPUT CONTROL FOR STRESS PERIOD    6   TIME STEP   16
 
 SOLVING FOR HEAD 
                                                   Max.-Head-Change                         Max.-Flux-Residual
  Residual-Control   Outer-Iter.   Inner-Iter.     Column Row Layer    Maximum-Head-Change  Column Row Layer    Maximum-Flux-Residual          L2-NORM 
          0                 1           2             2   13     1       0.6735969716E-02       2   13    1         0.3816347688E+00      0.9225359684E+00
          0                 2           2             4    7     1      -0.1131114341E-01       5    6    1        -0.6089351278E+00      0.1504936567E+01
          0                 3           2             4    7     1       0.1175756500E-01       5    6    1         0.6492316821E+00      0.1595325436E+01
          0                 4           2             4    7     1      -0.4678468012E-03       5    6    1        -0.2655365201E-01      0.6560718811E-01
          0                 5           1             4    7     1       0.5768750156E-05       5    6    1         0.3365165594E-03      0.8876295943E-03

    ------------------------------------------------
       NWT REQUIRED            5 OUTER ITERATIONS 
       AND A TOTAL OF          9 INNER ITERATIONS.
    ------------------------------------------------

 NO OUTPUT CONTROL FOR STRESS PERIOD    6   TIME STEP   17
 
 SOLVING FOR HEAD 
                                                   Max.-Head-Change                         Max.-Flux-Residual
  Residual-Control   Outer-Iter.   Inner-Iter.     Column Row Layer    Maximum-Head-Change  Column Row Layer    Maximum-Flux-Residual          L2-NORM 
          0                 1           2             2    2     1       0.6666991623E-02       2   13    1         0.3631631016E+00      0.9009402843E+00
          0                 2           2             4    7     1      -0.1131297044E-01       5    6    1        -0.6090574896E+00      0.1504799493E+01
          0                 3           2             4    7     1       0.1175919548E-01       5    6    1         0.6493233959E+00      0.1595554936E+01
          0                 4           2             4    7     1      -0.4679116800E-03       5    6    1        -0.2655740310E-01      0.6561697034E-01
          0                 5           1             4    7     1       0.5769550166E-05       5    6    1         0.3365640832E-03      0.8880798642E-03

    ------------------------------------------------
       NWT REQUIRED            5 OUTER ITERATIONS 
       AND A TOTAL OF          9 INNER ITERATIONS.
    ------------------------------------------------

 NO OUTPUT CONTROL FOR STRESS PERIOD    6   TIME STEP   18
 
 SOLVING FOR HEAD 
                                                   Max.-Head-Change                         Max.-Flux-Residual
  Residual-Control   Outer-Iter.   Inner-Iter.     Column Row Layer    Maximum-Head-Change  Column Row Layer    Maximum-Flux-Residual          L2-NORM 
          0                 1           2             2    2     1       0.6633235538E-02       2   13    1         0.3461965228E+00      0.8815234926E+00
          0                 2           2             4    7     1      -0.1131290806E-01       5    6    1        -0.6090775966E+00      0.1504452074E+01
          0                 3           2             4    7     1       0.1175885441E-01       5    6    1         0.6493062067E+00      0.1595516123E+01
          0                 4           2             4    7     1      -0.4678981085E-03       5    6    1        -0.2655670006E-01      0.6561711318E-01
          0                 5           1             4    7     1       0.5769382816E-05       5    6    1         0.3365551820E-03      0.8913099536E-03

    ------------------------------------------------
       NWT REQUIRED            5 OUTER ITERATIONS 
       AND A TOTAL OF          9 INNER ITERATIONS.
    ------------------------------------------------

 NO OUTPUT CONTROL FOR STRESS PERIOD    6   TIME STEP   19
 
 SOLVING FOR HEAD 
                                                   Max.-Head-Change                         Max.-Flux-Residual
  Residual-Control   Outer-Iter.   Inner-Iter.     Column Row Layer    Maximum-Head-Change  Column Row Layer    Maximum-Flux-Residual          L2-NORM 
          0                 1           2             2    2     1       0.6599840216E-02       2    2    1         0.3441514819E+00      0.8640088837E+00
          0                 2           2             4    7     1      -0.1132873297E-01       5    6    1        -0.6099469175E+00      0.1506235151E+01
          0                 3           2             4    7     1       0.1177504652E-01       5    6    1         0.6502015242E+00      0.1597719803E+01
          0                 4           2             4    7     1      -0.4685424137E-03       5    6    1        -0.2659331871E-01      0.6570709188E-01
          0                 5           1             4    7     1       0.5777327132E-05       5    6    1         0.3370192535E-03      0.8893404505E-03

    ------------------------------------------------
       NWT REQUIRED            5 OUTER ITERATIONS 
       AND A TOTAL OF          9 INNER ITERATIONS.
    ------------------------------------------------

 NO OUTPUT CONTROL FOR STRESS PERIOD    6   TIME STEP   20
 
 SOLVING FOR HEAD 
                                                   Max.-Head-Change                         Max.-Flux-Residual
  Residual-Control   Outer-Iter.   Inner-Iter.     Column Row Layer    Maximum-Head-Change  Column Row Layer    Maximum-Flux-Residual          L2-NORM 
          0                 1           2             2    2     1       0.6566972677E-02       2    2    1         0.3424245196E+00      0.8481988050E+00
          0                 2           2             4    7     1      -0.1132554849E-01       5    6    1        -0.6097933298E+00      0.1505537818E+01
          0                 3           2             4    7     1       0.1177142245E-01       5    6    1         0.6500026608E+00      0.1597233699E+01
          0                 4           2             4    7     1      -0.4683982076E-03       5    6    1        -0.2658518516E-01      0.6568740067E-01
          0                 5           1             4    7     1       0.5775549233E-05       5    6    1         0.3369161727E-03      0.8892883805E-03

    ------------------------------------------------
       NWT REQUIRED            5 OUTER ITERATIONS 
       AND A TOTAL OF          9 INNER ITERATIONS.
    ------------------------------------------------

 NO OUTPUT CONTROL FOR STRESS PERIOD    6   TIME STEP   21
 
 SOLVING FOR HEAD 
                                                   Max.-Head-Change                         Max.-Flux-Residual
  Residual-Control   Outer-Iter.   Inner-Iter.     Column Row Layer    Maximum-Head-Change  Column Row Layer    Maximum-Flux-Residual          L2-NORM 
          0                 1           2             2    2     1       0.6534364850E-02       2    2    1         0.3407112713E+00      0.8338455213E+00
          0                 2           2             4    7     1      -0.1133878877E-01       5    6    1        -0.6105212316E+00      0.1507037768E+01
          0                 3           2             4    7     1       0.1178491876E-01       5    6    1         0.6507489616E+00      0.1599070305E+01
          0                 4           2             4    7     1      -0.4689352435E-03       5    6    1        -0.2661570900E-01      0.6576313553E-01
          0                 5           1             4    7     1       0.5782171102E-05       5    6    1         0.3373030122E-03      0.8900376050E-03

    ------------------------------------------------
       NWT REQUIRED            5 OUTER ITERATIONS 
       AND A TOTAL OF          9 INNER ITERATIONS.
    ------------------------------------------------

 NO OUTPUT CONTROL FOR STRESS PERIOD    6   TIME STEP   22
 
 SOLVING FOR HEAD 
                                                   Max.-Head-Change                         Max.-Flux-Residual
  Residual-Control   Outer-Iter.   Inner-Iter.     Column Row Layer    Maximum-Head-Change  Column Row Layer    Maximum-Flux-Residual          L2-NORM 
          0                 1           2             2    2     1       0.6502272152E-02       2    2    1         0.3390251402E+00      0.8208185572E+00
          0                 2           2             4    7     1      -0.1133730627E-01       5    6    1        -0.6104546973E+00      0.1506617434E+01
          0                 3           2             4    7     1       0.1178308721E-01       5    6    1         0.6506487580E+00      0.1598826269E+01
          0                 4           2             4    7     1      -0.4688623639E-03       5    6    1        -0.2661161066E-01      0.6575341026E-01
          0                 5           1             4    7     1       0.5781272295E-05       5    6    1         0.3372510737E-03      0.8901757695E-03

    ------------------------------------------------
       NWT REQUIRED            5 OUTER ITERATIONS 
       AND A TOTAL OF          9 INNER ITERATIONS.
    ------------------------------------------------

 NO OUTPUT CONTROL FOR STRESS PERIOD    6   TIME STEP   23
 
 SOLVING FOR HEAD 
                                                   Max.-Head-Change                         Max.-Flux-Residual
  Residual-Control   Outer-Iter.   Inner-Iter.     Column Row Layer    Maximum-Head-Change  Column Row Layer    Maximum-Flux-Residual          L2-NORM 
          0                 1           2             2    2     1       0.6470600472E-02       2    2    1         0.3373611676E+00      0.8089346206E+00
          0                 2           2             4    7     1      -0.1134784296E-01       5    6    1        -0.6110321345E+00      0.1507802582E+01
          0                 3           2             4    7     1       0.1179373819E-01       5    6    1         0.6512376009E+00      0.1600275556E+01
          0                 4           2             4    7     1      -0.4692861801E-03       5    6    1        -0.2663569443E-01      0.6581332787E-01
          0                 5           1             4    7     1       0.5786498235E-05       5    6    1         0.3375562928E-03      0.8909862487E-03

    ------------------------------------------------
       NWT REQUIRED            5 OUTER ITERATIONS 
       AND A TOTAL OF          9 INNER ITERATIONS.
    ------------------------------------------------

 NO OUTPUT CONTROL FOR STRESS PERIOD    6   TIME STEP   24
 
 SOLVING FOR HEAD 
                                                   Max.-Head-Change                         Max.-Flux-Residual
  Residual-Control   Outer-Iter.   Inner-Iter.     Column Row Layer    Maximum-Head-Change  Column Row Layer    Maximum-Flux-Residual          L2-NORM 
          0                 1           2             2    2     1       0.6439256123E-02       2    2    1         0.3357144732E+00      0.7980841975E+00
          0                 2           2             4    7     1      -0.1135441502E-01       5    6    1        -0.6113963683E+00      0.1508484502E+01
          0                 3           2             4    7     1       0.1180028767E-01       5    6    1         0.6515999827E+00      0.1601167802E+01
          0                 4           2             4    7     1      -0.4695467933E-03       5    6    1        -0.2665051591E-01      0.6585034199E-01
          0                 5           1             4    7     1       0.5789711940E-05       5    6    1         0.3377441053E-03      0.8916106449E-03

    ------------------------------------------------
       NWT REQUIRED            5 OUTER ITERATIONS 
       AND A TOTAL OF          9 INNER ITERATIONS.
    ------------------------------------------------

 NO OUTPUT CONTROL FOR STRESS PERIOD    6   TIME STEP   25
 
 SOLVING FOR HEAD 
                                                   Max.-Head-Change                         Max.-Flux-Residual
  Residual-Control   Outer-Iter.   Inner-Iter.     Column Row Layer    Maximum-Head-Change  Column Row Layer    Maximum-Flux-Residual          L2-NORM 
          0                 1           2             2    2     1       0.6408320786E-02       2    2    1         0.3340893015E+00      0.7881479678E+00
          0                 2           2             4    7     1      -0.1134406438E-01       5    6    1        -0.6108469453E+00      0.1506947044E+01
          0                 3           2             4    7     1       0.1178919489E-01       5    6    1         0.6509880073E+00      0.1599665549E+01
          0                 4           2             4    7     1      -0.4691053959E-03       5    6    1        -0.2662548600E-01      0.6578865006E-01
          0                 5           1             4    7     1       0.5784269139E-05       5    6    1         0.3374269236E-03      0.8903915073E-03

    ------------------------------------------------
       NWT REQUIRED            5 OUTER ITERATIONS 
       AND A TOTAL OF          9 INNER ITERATIONS.
    ------------------------------------------------

 NO OUTPUT CONTROL FOR STRESS PERIOD    6   TIME STEP   26
 
 SOLVING FOR HEAD 
                                                   Max.-Head-Change                         Max.-Flux-Residual
  Residual-Control   Outer-Iter.   Inner-Iter.     Column Row Layer    Maximum-Head-Change  Column Row Layer    Maximum-Flux-Residual          L2-NORM 
          0                 1           2             2    2     1       0.6377700962E-02       2    2    1         0.3324807852E+00      0.7790036768E+00
          0                 2           2             4    7     1      -0.1135251116E-01       5    6    1        -0.6113088363E+00      0.1507907187E+01
          0                 3           2             4    7     1       0.1179769440E-01       5    6    1         0.6514578377E+00      0.1600821643E+01
          0                 4           2             4    7     1      -0.4694436030E-03       5    6    1        -0.2664470216E-01      0.6583645407E-01
          0                 5           1             4    7     1       0.5788439676E-05       5    6    1         0.3376704381E-03      0.8914911764E-03

    ------------------------------------------------
       NWT REQUIRED            5 OUTER ITERATIONS 
       AND A TOTAL OF          9 INNER ITERATIONS.
    ------------------------------------------------

 NO OUTPUT CONTROL FOR STRESS PERIOD    6   TIME STEP   27
 
 SOLVING FOR HEAD 
                                                   Max.-Head-Change                         Max.-Flux-Residual
  Residual-Control   Outer-Iter.   Inner-Iter.     Column Row Layer    Maximum-Head-Change  Column Row Layer    Maximum-Flux-Residual          L2-NORM 
          0                 1           2             2    2     1       0.6347565234E-02       2    2    1         0.3308977311E+00      0.7705954531E+00
          0                 2           2             4    7     1      -0.1134432661E-01       5    6    1        -0.6108745538E+00      0.1506682561E+01
          0                 3           2             4    7     1       0.1178885543E-01       5    6    1         0.6509702107E+00      0.1599624560E+01
          0                 4           2             4    7     1      -0.4690918889E-03       5    6    1        -0.2662475812E-01      0.6578730667E-01
          0                 5           1             4    7     1       0.5784102685E-05       5    6    1         0.3374176817E-03      0.8903696564E-03

    ------------------------------------------------
       NWT REQUIRED            5 OUTER ITERATIONS 
       AND A TOTAL OF          9 INNER ITERATIONS.
    ------------------------------------------------

 NO OUTPUT CONTROL FOR STRESS PERIOD    6   TIME STEP   28
 
 SOLVING FOR HEAD 
                                                   Max.-Head-Change                         Max.-Flux-Residual
  Residual-Control   Outer-Iter.   Inner-Iter.     Column Row Layer    Maximum-Head-Change  Column Row Layer    Maximum-Flux-Residual          L2-NORM 
          0                 1           2             2    2     1       0.6317732916E-02       2    2    1         0.3293306734E+00      0.7628219160E+00
          0                 2           2             4    7     1      -0.1135588686E-01       5    6    1        -0.6115008681E+00      0.1508077342E+01
          0                 3           2             4    7     1       0.1180059525E-01       5    6    1         0.6516187418E+00      0.1601219582E+01
          0                 4           2             4    7     1      -0.4695590321E-03       5    6    1        -0.2665128317E-01      0.6585301808E-01
          0                 5           1             4    7     1       0.5789862712E-05       5    6    1         0.3377538501E-03      0.8918236365E-03

    ------------------------------------------------
       NWT REQUIRED            5 OUTER ITERATIONS 
       AND A TOTAL OF          9 INNER ITERATIONS.
    ------------------------------------------------

 NO OUTPUT CONTROL FOR STRESS PERIOD    6   TIME STEP   29
 
 SOLVING FOR HEAD 
                                                   Max.-Head-Change                         Max.-Flux-Residual
  Residual-Control   Outer-Iter.   Inner-Iter.     Column Row Layer    Maximum-Head-Change  Column Row Layer    Maximum-Flux-Residual          L2-NORM 
          0                 1           2             2    2     1       0.5802093258E-02       2    2    1         0.3023675831E+00      0.6355143757E+00
          0                 2           2             4    7     1      -0.1135645900E-01       5    6    1        -0.6115344815E+00      0.1505687855E+01
          0                 3           2             4    7     1       0.1180087390E-01       5    6    1         0.6516343273E+00      0.1601301757E+01
          0                 4           2             4    7     1      -0.4695701198E-03       5    6    1        -0.2665192058E-01      0.6586041084E-01
          0                 5           1             4    7     1       0.5789999594E-05       5    6    1         0.3377619205E-03      0.8927990642E-03

    ------------------------------------------------
       NWT REQUIRED            5 OUTER ITERATIONS 
       AND A TOTAL OF          9 INNER ITERATIONS.
    ------------------------------------------------

 NO OUTPUT CONTROL FOR STRESS PERIOD    6   TIME STEP   30



 STREAM LISTING     PERIOD      6   STEP       30

 LAYER ROW COL. STREAM  RCH.  FLOW INTO     FLOW TO   FLOW OUT OF   OVRLND.     DIRECT     STREAM       STREAM     STREAM     STREAM   STREAMBED  STREAMBED
                SEG.NO.  NO.  STRM. RCH.    AQUIFER    STRM. RCH.    RUNOFF     PRECIP       ET          HEAD       DEPTH      WIDTH   CONDCTNC.   GRADIENT

   1    1    1     1     1    6.9266E+01  4.0352E-01   6.8863E+01  0.000E+00  0.000E+00  0.000E+00  1.09468E+03  1.634E+00  1.935E+01  8.707E-02  1.545E+00
   1    2    2     1     2    6.8863E+01  6.2503E-01   6.8238E+01  0.000E+00  0.000E+00  0.000E+00  1.08969E+03  1.628E+00  1.929E+01  1.350E-01  1.543E+00
   1    3    3     1     3    6.8238E+01  5.3316E-01   6.7704E+01  0.000E+00  0.000E+00  0.000E+00  1.08404E+03  1.622E+00  1.923E+01  1.154E-01  1.541E+00
   1    3    4     1     4    6.7704E+01  4.9106E-01   6.7213E+01  0.000E+00  0.000E+00  0.000E+00  1.07902E+03  1.616E+00  1.917E+01  1.064E-01  1.539E+00
   1    4    5     2     1    6.5213E+01  4.0112E-01   6.4812E+01  0.000E+00  0.000E+00  0.000E+00  1.07408E+03  2.143E+00  1.200E+01  7.800E-02  1.714E+00
   1    5    6     2     2    6.4812E+01  3.0814E-01   6.4504E+01  0.000E+00  0.000E+00  0.000E+00  1.06865E+03  2.136E+00  1.200E+01  6.000E-02  1.712E+00
   1    6    6     2     3    6.4504E+01  3.0777E-01   6.4196E+01  0.000E+00  0.000E+00  0.000E+00  1.06392E+03  2.129E+00  1.200E+01  6.000E-02  1.710E+00
   1    7    6     2     4    6.4196E+01  3.0740E-01   6.3889E+01  0.000E+00  0.000E+00  0.000E+00  1.05920E+03  2.123E+00  1.200E+01  6.000E-02  1.708E+00
   1    8    6     2     5    6.3889E+01  3.0704E-01   6.3582E+01  0.000E+00  0.000E+00  0.000E+00  1.05448E+03  2.117E+00  1.200E+01  6.000E-02  1.706E+00
   1    3    5     3     1    2.0000E+00  2.8252E-01   1.7175E+00  0.000E+00  0.000E+00  0.000E+00  1.07555E+03  1.909E+00  9.636E+00  7.227E-02  1.955E+00
   1    3    6     3     2    1.7175E+00  2.4905E-01   1.4684E+00  0.000E+00  0.000E+00  0.000E+00  1.07264E+03  1.727E+00  8.909E+00  6.682E-02  1.864E+00
   1    3    7     3     3    1.4684E+00  1.9718E-01   1.2712E+00  0.000E+00  0.000E+00  0.000E+00  1.06987E+03  1.555E+00  8.218E+00  5.547E-02  1.777E+00
   1    4    8     3     4    1.2712E+00  2.2567E-01   1.0456E+00  0.000E+00  0.000E+00  0.000E+00  1.06682E+03  1.364E+00  7.455E+00  6.709E-02  1.682E+00
   1    5    8     3     5    1.0456E+00  1.5790E-01   8.8768E-01  0.000E+00  0.000E+00  0.000E+00  1.06362E+03  1.164E+00  6.655E+00  4.991E-02  1.582E+00
   1    6    8     3     6    8.8768E-01  5.5980E-02   8.3170E-01  0.000E+00  0.000E+00  0.000E+00  1.06158E+03  1.036E+00  6.145E+00  1.844E-02  1.518E+00
   1    5   10     4     1    1.0000E+01  9.0919E-02   9.9091E+00  0.000E+00  0.000E+00  0.000E+00  1.07836E+03  6.368E-01  1.000E+01  2.500E-02  1.212E+00
   1    5    9     4     2    9.9091E+00  1.8158E-01   9.7275E+00  0.000E+00  0.000E+00  0.000E+00  1.07154E+03  6.315E-01  1.000E+01  5.000E-02  1.211E+00
   1    6    8     4     3    9.7275E+00  1.2689E-01   9.6006E+00  0.000E+00  0.000E+00  0.000E+00  1.06381E+03  6.256E-01  1.000E+01  3.500E-02  1.209E+00
   1    6    8     5     1    1.0432E+01  2.2686E-01   1.0205E+01  0.000E+00  0.000E+00  0.000E+00  1.05868E+03  6.790E-01  1.542E+01  6.166E-02  1.226E+00
   1    7    7     5     2    1.0205E+01  2.7894E-01   9.9265E+00  0.000E+00  0.000E+00  0.000E+00  1.05417E+03  6.732E-01  1.519E+01  7.594E-02  1.224E+00
   1    8    7     5     3    9.9265E+00  1.9221E-01   9.7343E+00  0.000E+00  0.000E+00  0.000E+00  1.04992E+03  6.676E-01  1.497E+01  5.241E-02  1.223E+00
   1    8    6     5     4    9.7343E+00  1.3577E-01   9.5985E+00  0.000E+00  0.000E+00  0.000E+00  1.04691E+03  6.637E-01  1.482E+01  3.706E-02  1.221E+00
   1    9    6     6     1    6.5875E+01  3.1084E-01   6.5564E+01  0.000E+00  0.000E+00  0.000E+00  1.04491E+03  2.181E+00  1.200E+01  6.000E-02  1.727E+00
   1   10    7     6     2    6.5564E+01  3.1047E-01   6.5253E+01  0.000E+00  0.000E+00  0.000E+00  1.04036E+03  2.174E+00  1.200E+01  6.000E-02  1.725E+00
   1   11    7     6     3    6.5253E+01  3.1010E-01   6.4943E+01  0.000E+00  0.000E+00  0.000E+00  1.03580E+03  2.168E+00  1.200E+01  6.000E-02  1.723E+00
   1   12    7     6     4    6.4943E+01  3.0972E-01   6.4633E+01  0.000E+00  0.000E+00  0.000E+00  1.03125E+03  2.162E+00  1.200E+01  6.000E-02  1.721E+00
   1   13    7     6     5    6.4633E+01  2.1903E-02   6.4611E+01  0.000E+00  0.000E+00  0.000E+00  1.02807E+03  2.159E+00  1.200E+01  2.400E-02  3.042E-01
   1   14    9     7     1    1.5000E+02  1.3359E+00   1.4866E+02  0.000E+00  0.000E+00  0.000E+00  1.03987E+03  2.288E+00  5.529E+01  5.593E-01  7.962E-01
   1   13    8     7     2    1.4866E+02  1.8213E+00   1.4684E+02  0.000E+00  0.000E+00  0.000E+00  1.03478E+03  2.279E+00  5.526E+01  6.148E-01  9.875E-01
   1   13    7     7     3    1.4684E+02  1.4156E+00   1.4543E+02  0.000E+00  0.000E+00  0.000E+00  1.02969E+03  2.271E+00  5.522E+01  5.585E-01  8.449E-01
   1   13    6     8     1    2.1004E+02  1.0203E+00   2.0902E+02  0.000E+00  0.000E+00  0.000E+00  1.02507E+03  3.193E+00  4.630E+01  4.718E-01  7.209E-01
   1   13    5     8     2    2.0902E+02  2.0845E-01   2.0881E+02  0.000E+00  0.000E+00  0.000E+00  1.01881E+03  3.189E+00  4.625E+01  4.713E-01  1.474E-01
   1   13    4     8     3    2.0881E+02 -2.3813E+00   2.1119E+02  0.000E+00  0.000E+00  0.000E+00  1.01257E+03  3.196E+00  4.634E+01  4.722E+00 -1.681E-01
   1   13    3     8     4    2.1119E+02 -3.5489E+00   2.1474E+02  0.000E+00  0.000E+00  0.000E+00  1.00634E+03  3.213E+00  4.658E+01  4.747E+00 -2.492E-01
   1   13    2     8     5    2.1474E+02 -2.5516E+00   2.1729E+02  0.000E+00  0.000E+00  0.000E+00  1.00010E+03  3.230E+00  4.683E+01  4.772E+00 -1.782E-01
   1   13    1     8     6    2.1729E+02 -1.9202E+00   2.1921E+02  0.000E+00  0.000E+00  0.000E+00  9.95117E+02  3.242E+00  4.701E+01  2.874E+00 -2.227E-01
   1    8    6     9     1    7.3059E+00  0.0000E+00   7.3059E+00  0.000E+00  0.000E+00  0.000E+00  1.08063E+03  1.877E+00  4.000E+00  0.000E+00  1.626E+00
   1    8    5     9     2    7.3059E+00  0.0000E+00   7.3059E+00  0.000E+00  0.000E+00  0.000E+00  1.08013E+03  1.877E+00  4.000E+00  0.000E+00  1.626E+00





UNSATURATED ZONE PACKAGE VOLUMETRIC BUDGET FOR  TIME STEP    30 STRESS PERIOD    6
  ------------------------------------------------------------------------------



     CUMULATIVE VOLUMES      L**3       RATES FOR THIS TIME STEP      L**3/T
     ------------------                 ------------------------

           IN:                                      IN:
           ---                                      ---
        INFILTRATION =    86119343.4231          INFILTRATION =          11.7136

          OUT:                                     OUT:
          ----                                     ----
              UZF ET =    66336487.2886                UZF ET =          11.6075
        UZF RECHARGE =       73224.0000          UZF RECHARGE =       0.0000E+00

            IN - OUT =    19709632.1345              IN - OUT =           0.1061

          STORAGE:                                 STORAGE:
          --------                                 --------
      STORAGE CHANGE =    19709631.2580        STORAGE CHANGE =           0.1061

 PERCENT DISCREPANCY IS DIFFERENCE BETWEEN IN-OUT MINUS CHANGE IN STORAGE
 DIVIDED BY THE AVERAGE OF IN AND OUT TIMES 100

 PERCENT DISCREPANCY =           0.00     PERCENT DISCREPANCY =           0.00






1
  VOLUMETRIC BUDGET FOR AGRICULTURAL FIELDS AT  END OF TIME STEP   30, STRESS PERIOD   6
  ------------------------------------------------------------------------------

     CUMULATIVE VOLUMES      L**3       RATES FOR THIS TIME STEP      L**3/T
     ------------------                 ------------------------

           IN:                                      IN:
           ---                                      ---
               AG WELLS  =       29478.1953                 AG WELLS  =           0.0000
      DIVERSION SEGMENTS =    28086938.0000        DIVERSION SEGMENTS =           7.3059
           GW IRRIGATION =           0.0000             GW IRRIGATION =           0.0000
           SW IRRIGATION =           0.0000             SW IRRIGATION =           0.0000
        SYSTEM LOSSES GW =           0.0000          SYSTEM LOSSES GW =           0.0000
        SYSTEM LOSSES SW =           0.0000          SYSTEM LOSSES SW =           0.0000

                TOTAL IN =    28116416.0000                  TOTAL IN =           7.3059

          OUT:                                     OUT:
          ----                                     ----
               AG WELLS  =           0.0000                 AG WELLS  =           0.0000
      DIVERSION SEGMENTS =           0.0000        DIVERSION SEGMENTS =           0.0000
           GW IRRIGATION =       29478.1953             GW IRRIGATION =           0.0000
           SW IRRIGATION =    28087496.0000             SW IRRIGATION =           7.3061
        SYSTEM LOSSES GW =           0.0000          SYSTEM LOSSES GW =           0.0000
        SYSTEM LOSSES SW =           0.0000          SYSTEM LOSSES SW =           0.0000

               TOTAL OUT =    28116974.0000                 TOTAL OUT =           7.3061

                IN - OUT =        -558.0000                  IN - OUT =      -1.4639E-04

     PERCENT DISCREPANCY =          -0.00         PERCENT DISCREPANCY =          -0.00



1
  VOLUMETRIC BUDGET FOR ENTIRE MODEL AT END OF TIME STEP   30, STRESS PERIOD   6
  ------------------------------------------------------------------------------

     CUMULATIVE VOLUMES      L**3       RATES FOR THIS TIME STEP      L**3/T
     ------------------                 ------------------------

           IN:                                      IN:
           ---                                      ---
             STORAGE     =     9393759.0000               STORAGE     =           0.5016
       CONSTANT HEAD     =           0.0000         CONSTANT HEAD     =           0.0000
     HEAD DEP BOUNDS     =     3781788.7500       HEAD DEP BOUNDS     =           0.2858
      STREAM LEAKAGE     =   161059712.0000        STREAM LEAKAGE     =          13.1503
        UZF RECHARGE     =       73223.9531          UZF RECHARGE     =           0.0000
               GW ET     =           0.0000                 GW ET     =           0.0000
     SURFACE LEAKAGE     =           0.0000       SURFACE LEAKAGE     =           0.0000
           AG WELLS      =           0.0000             AG WELLS      =           0.0000

                TOTAL IN =   174308480.0000                  TOTAL IN =          13.9377

          OUT:                                     OUT:
          ----                                     ----
             STORAGE     =    31700280.0000               STORAGE     =           2.8568
       CONSTANT HEAD     =           0.0000         CONSTANT HEAD     =           0.0000
     HEAD DEP BOUNDS     =     3858609.2500       HEAD DEP BOUNDS     =           0.2958
      STREAM LEAKAGE     =   138005760.0000        STREAM LEAKAGE     =          10.4020
        UZF RECHARGE     =           0.0000          UZF RECHARGE     =           0.0000
               GW ET     =      717844.0000                 GW ET     =           0.3831
     SURFACE LEAKAGE     =           0.0000       SURFACE LEAKAGE     =           0.0000
           AG WELLS      =       29478.1953             AG WELLS      =           0.0000

               TOTAL OUT =   174311952.0000                 TOTAL OUT =          13.9377

                IN - OUT =       -3472.0000                  IN - OUT =       4.1962E-05

     PERCENT DISCREPANCY =          -0.00         PERCENT DISCREPANCY =           0.00






         TIME SUMMARY AT END OF TIME STEP   30 IN STRESS PERIOD    6
                    SECONDS     MINUTES      HOURS       DAYS        YEARS
                    -----------------------------------------------------------
   TIME STEP LENGTH  87667.      1461.1      24.352      1.0147     2.77799E-03
 STRESS PERIOD TIME 2.63000E+06  43833.      730.56      30.440     8.33397E-02
         TOTAL TIME 1.32364E+07 2.20607E+05  3676.8      153.20     0.41944    
1
1
                            STRESS PERIOD NO.    7, LENGTH =   2630000.    
                            -----------------------------------------------

                              NUMBER OF TIME STEPS =    30

                               MULTIPLIER FOR DELT =     1.000

                            INITIAL TIME STEP SIZE =   87666.66    

 REUSING NON-PARAMETER GHB CELLS FROM LAST STRESS PERIOD

      2 GHB CELLS

 REUSING STREAM SEGMENT DATA FROM LAST STRESS PERIOD



            AREAL INFILTRATION RATE
 READING ON UNIT   19 WITH FORMAT: (10F4.0)            

            1           2           3           4           5           6           7           8           9          10
 ........................................................................................................................
   1   1.2000E-09   0.000       0.000       0.000       0.000       0.000       0.000       0.000       0.000       0.000    
   2   2.1000E-09  2.0000E-09  8.0000E-10  8.5000E-09   0.000       0.000       0.000       0.000       0.000       0.000    
   3   5.0000E-10  1.1000E-09  8.8000E-09  5.5000E-09   0.000       0.000       0.000       0.000       0.000       0.000    
   4   8.5000E-09  1.1000E-09  1.1000E-09  1.1000E-09  2.0000E-09   0.000       0.000       0.000       0.000       0.000    
   5   8.5000E-09  1.1000E-09  1.1000E-09  1.1000E-09  1.1000E-09   0.000       0.000       0.000       0.000       0.000    
   6   8.5000E-09  5.2000E-09  2.1000E-09  1.1000E-09  1.5000E-09   0.000       0.000       0.000       0.000       0.000    
   7   8.5000E-09  5.2000E-09  2.1000E-09  1.2000E-09  2.0000E-09   0.000       0.000       0.000       0.000       0.000    
   8   5.0000E-10  5.2000E-09  2.1000E-09  1.2000E-09  5.0000E-09   0.000       0.000       0.000       0.000       0.000    
   9   5.0000E-10  5.2000E-09  2.1000E-09  1.2000E-09  5.0000E-09   0.000       0.000       0.000       0.000       0.000    
  10   5.0000E-10  5.2000E-09  2.1000E-09  1.2000E-09  5.8000E-09   0.000       0.000       0.000       0.000       0.000    
  11   1.0000E-10  1.1000E-09  1.1000E-09  1.2000E-09  5.0000E-09   0.000       0.000       0.000       0.000       0.000    
  12   1.1000E-09  1.1000E-09  1.1000E-09  1.1000E-09  2.0000E-09   0.000       0.000       0.000       0.000       0.000    
  13   1.1000E-09  2.2000E-09  2.2000E-09  2.1000E-09  1.0000E-09   0.000       0.000       0.000       0.000       0.000    
  14   2.0000E-10  5.5000E-09  5.5000E-09  5.2000E-09  1.0000E-09   0.000       0.000       0.000       0.000       0.000    
  15    0.000      8.8000E-09  8.8000E-09   0.000       0.000       0.000       0.000       0.000       0.000       0.000    

                  ET RATE =  1.500000E-07

 USING ET EXTINCTION DEPTH FROM PREVIOUS STRESS PERIOD. CURRENT PERIOD IS:       7

 USING EXTINCTION WATER CONTENT FROM PREVIOUS STRESS PERIOD. CURRENT PERIOD IS:       7

 USING AIR ENTRY PRESSURE FROM PREVIOUS STRESS PERIOD. CURRENT PERIOD IS:       7

 USING ROOT PRESSURE HEAD FROM PREVIOUS STRESS PERIOD. CURRENT PERIOD IS:       7

 USING ROOT ACTIVITY FROM PREVIOUS STRESS PERIOD. CURRENT PERIOD IS:       7

 PROCESSING AG STRESS PERIOD DATA

 READING AG STRESS PERIOD DATA

 READING IRRIGATION SEGMENT

 READING IRRIGATION WELL

 READING SUPPLEMENTAL WELL

 END PROCESSING AG STRESS PERIOD DATA OPTIONS
 
 SOLVING FOR HEAD 
                                                   Max.-Head-Change                         Max.-Flux-Residual
  Residual-Control   Outer-Iter.   Inner-Iter.     Column Row Layer    Maximum-Head-Change  Column Row Layer    Maximum-Flux-Residual          L2-NORM 
          0                 1           2             3   13     1      -0.7385232659E-02       3   13    1        -0.4739100172E+00      0.8340059924E+00
          0                 2           2             4    7     1      -0.4156128798E-01       5    6    1        -0.2233776423E+01      0.5489704545E+01
          0                 3           2             4    7     1       0.4324099031E-01       5    6    1         0.2387421800E+01      0.5865554278E+01
          0                 4           2             4    7     1      -0.1720789234E-02       4    6    1        -0.9834233324E-01      0.2433700867E+00
          0                 5           1             4   13     1      -0.2677629354E-04       4   13    1        -0.1817359504E-02      0.4185269870E-02

    ------------------------------------------------
       NWT REQUIRED            5 OUTER ITERATIONS 
       AND A TOTAL OF          9 INNER ITERATIONS.
    ------------------------------------------------

 NO OUTPUT CONTROL FOR STRESS PERIOD    7   TIME STEP    1
 
 SOLVING FOR HEAD 
                                                   Max.-Head-Change                         Max.-Flux-Residual
  Residual-Control   Outer-Iter.   Inner-Iter.     Column Row Layer    Maximum-Head-Change  Column Row Layer    Maximum-Flux-Residual          L2-NORM 
          0                 1           2             2    2     1       0.5051786760E-02       3   13    1        -0.2910175041E+00      0.6498091274E+00
          0                 2           2             4    7     1      -0.3854385950E-01       5    6    1        -0.2071695679E+01      0.5093014255E+01
          0                 3           2             4    7     1       0.4009984236E-01       5    6    1         0.2213998785E+01      0.5439885291E+01
          0                 4           2             4    7     1      -0.1595798001E-02       4    6    1        -0.9125936561E-01      0.2251987507E+00
          0                 5           1             4   13     1      -0.2484048262E-04       4   13    1        -0.1686380399E-02      0.3646472167E-02

    ------------------------------------------------
       NWT REQUIRED            5 OUTER ITERATIONS 
       AND A TOTAL OF          9 INNER ITERATIONS.
    ------------------------------------------------

 NO OUTPUT CONTROL FOR STRESS PERIOD    7   TIME STEP    2
 
 SOLVING FOR HEAD 
                                                   Max.-Head-Change                         Max.-Flux-Residual
  Residual-Control   Outer-Iter.   Inner-Iter.     Column Row Layer    Maximum-Head-Change  Column Row Layer    Maximum-Flux-Residual          L2-NORM 
          0                 1           2             2    2     1       0.5032198586E-02       2    2    1         0.2621045593E+00      0.5595164553E+00
          0                 2           2             4    7     1      -0.3703968787E-01       5    6    1        -0.1990891186E+01      0.4895908815E+01
          0                 3           2             4    7     1       0.3853385213E-01       5    6    1         0.2127539703E+01      0.5227474129E+01
          0                 4           2             4    7     1      -0.1533486058E-02       4    6    1        -0.8773331097E-01      0.2164174973E+00
          0                 5           1             4   13     1      -0.2381226790E-04       4   13    1        -0.1616746526E-02      0.3501909923E-02

    ------------------------------------------------
       NWT REQUIRED            5 OUTER ITERATIONS 
       AND A TOTAL OF          9 INNER ITERATIONS.
    ------------------------------------------------

 NO OUTPUT CONTROL FOR STRESS PERIOD    7   TIME STEP    3
 
 SOLVING FOR HEAD 
                                                   Max.-Head-Change                         Max.-Flux-Residual
  Residual-Control   Outer-Iter.   Inner-Iter.     Column Row Layer    Maximum-Head-Change  Column Row Layer    Maximum-Flux-Residual          L2-NORM 
          0                 1           2             2    2     1       0.5012764497E-02       2    2    1         0.2610843800E+00      0.5390826510E+00
          0                 2           2             4    7     1      -0.2437098919E-01       5    6    1        -0.1310461886E+01      0.3223396834E+01
          0                 3           2             4    7     1       0.2534672494E-01       5    6    1         0.1399482303E+01      0.3439054363E+01
          0                 4           2             4    7     1      -0.1008746381E-02       4    6    1        -0.5796565333E-01      0.1420848868E+00
          0                 5           1             3   13     1      -0.1379337449E-04       3   13    1        -0.9335224131E-03      0.2102076098E-02

    ------------------------------------------------
       NWT REQUIRED            5 OUTER ITERATIONS 
       AND A TOTAL OF          9 INNER ITERATIONS.
    ------------------------------------------------

 NO OUTPUT CONTROL FOR STRESS PERIOD    7   TIME STEP    4
 
 SOLVING FOR HEAD 
                                                   Max.-Head-Change                         Max.-Flux-Residual
  Residual-Control   Outer-Iter.   Inner-Iter.     Column Row Layer    Maximum-Head-Change  Column Row Layer    Maximum-Flux-Residual          L2-NORM 
          0                 1           2             2    2     1       0.4993655469E-02       2    2    1         0.2600812954E+00      0.5482802185E+00
          0                 2           2             4    7     1      -0.4110436064E-01       5    6    1        -0.2209163276E+01      0.5435097651E+01
          0                 3           2             4    7     1       0.4276422761E-01       5    6    1         0.2361094331E+01      0.5801924052E+01
          0                 4           2             4    7     1      -0.1701826929E-02       4    6    1        -0.9730622607E-01      0.2389434157E+00
          0                 5           1             4    7     1       0.2098421571E-04       4    6    1         0.1233238535E-02      0.3239315485E-02

    ------------------------------------------------
       NWT REQUIRED            5 OUTER ITERATIONS 
       AND A TOTAL OF          9 INNER ITERATIONS.
    ------------------------------------------------

 OUTPUT CONTROL FOR STRESS PERIOD    7   TIME STEP    5
    PRINT BUDGET
    SAVE BUDGET
 UBDSV1 SAVING "         STORAGE" ON UNIT 102 AT TIME STEP  5, STRESS PERIOD   7
 UBDSV2 SAVING "   CONSTANT HEAD" ON UNIT 102 AT TIME STEP  5, STRESS PERIOD   7
 UBDSV1 SAVING "FLOW RIGHT FACE " ON UNIT 102 AT TIME STEP  5, STRESS PERIOD   7
 UBDSV1 SAVING "FLOW FRONT FACE " ON UNIT 102 AT TIME STEP  5, STRESS PERIOD   7

  HEAD DEP BOUNDS   PERIOD    7   STEP     5
 BOUNDARY      1   LAYER   1   ROW    13   COL     1   RATE   -0.295203    
 BOUNDARY      2   LAYER   1   ROW    14   COL     9   RATE    0.285764    



 STREAM LISTING     PERIOD      7   STEP        5

 LAYER ROW COL. STREAM  RCH.  FLOW INTO     FLOW TO   FLOW OUT OF   OVRLND.     DIRECT     STREAM       STREAM     STREAM     STREAM   STREAMBED  STREAMBED
                SEG.NO.  NO.  STRM. RCH.    AQUIFER    STRM. RCH.    RUNOFF     PRECIP       ET          HEAD       DEPTH      WIDTH   CONDCTNC.   GRADIENT

   1    1    1     1     1    6.2250E+01  3.7978E-01   6.1870E+01  0.000E+00  0.000E+00  0.000E+00  1.09460E+03  1.553E+00  1.854E+01  8.342E-02  1.518E+00
   1    2    2     1     2    6.1870E+01  5.8817E-01   6.1282E+01  0.000E+00  0.000E+00  0.000E+00  1.08961E+03  1.547E+00  1.848E+01  1.294E-01  1.516E+00
   1    3    3     1     3    6.1282E+01  5.0163E-01   6.0781E+01  0.000E+00  0.000E+00  0.000E+00  1.08396E+03  1.540E+00  1.841E+01  1.105E-01  1.513E+00
   1    3    4     1     4    6.0781E+01  4.6194E-01   6.0319E+01  0.000E+00  0.000E+00  0.000E+00  1.07894E+03  1.534E+00  1.836E+01  1.019E-01  1.511E+00
   1    4    5     2     1    5.8319E+01  3.9026E-01   5.7928E+01  0.000E+00  0.000E+00  0.000E+00  1.07394E+03  2.003E+00  1.200E+01  7.800E-02  1.668E+00
   1    5    6     2     2    5.7928E+01  2.9977E-01   5.7629E+01  0.000E+00  0.000E+00  0.000E+00  1.06851E+03  1.996E+00  1.200E+01  6.000E-02  1.665E+00
   1    6    6     2     3    5.7629E+01  2.9940E-01   5.7329E+01  0.000E+00  0.000E+00  0.000E+00  1.06378E+03  1.990E+00  1.200E+01  6.000E-02  1.663E+00
   1    7    6     2     4    5.7329E+01  2.9903E-01   5.7030E+01  0.000E+00  0.000E+00  0.000E+00  1.05906E+03  1.984E+00  1.200E+01  6.000E-02  1.661E+00
   1    8    6     2     5    5.7030E+01  2.9865E-01   5.6732E+01  0.000E+00  0.000E+00  0.000E+00  1.05434E+03  1.978E+00  1.200E+01  6.000E-02  1.659E+00
   1    3    5     3     1    2.0000E+00  2.8252E-01   1.7175E+00  0.000E+00  0.000E+00  0.000E+00  1.07555E+03  1.909E+00  9.636E+00  7.227E-02  1.955E+00
   1    3    6     3     2    1.7175E+00  2.4905E-01   1.4684E+00  0.000E+00  0.000E+00  0.000E+00  1.07264E+03  1.727E+00  8.909E+00  6.682E-02  1.864E+00
   1    3    7     3     3    1.4684E+00  1.9718E-01   1.2712E+00  0.000E+00  0.000E+00  0.000E+00  1.06987E+03  1.555E+00  8.218E+00  5.547E-02  1.777E+00
   1    4    8     3     4    1.2712E+00  2.2567E-01   1.0456E+00  0.000E+00  0.000E+00  0.000E+00  1.06682E+03  1.364E+00  7.455E+00  6.709E-02  1.682E+00
   1    5    8     3     5    1.0456E+00  1.5790E-01   8.8768E-01  0.000E+00  0.000E+00  0.000E+00  1.06362E+03  1.164E+00  6.655E+00  4.991E-02  1.582E+00
   1    6    8     3     6    8.8768E-01  5.5980E-02   8.3170E-01  0.000E+00  0.000E+00  0.000E+00  1.06158E+03  1.036E+00  6.145E+00  1.844E-02  1.518E+00
   1    5   10     4     1    1.0000E+01  9.0919E-02   9.9091E+00  0.000E+00  0.000E+00  0.000E+00  1.07836E+03  6.368E-01  1.000E+01  2.500E-02  1.212E+00
   1    5    9     4     2    9.9091E+00  1.8158E-01   9.7275E+00  0.000E+00  0.000E+00  0.000E+00  1.07154E+03  6.315E-01  1.000E+01  5.000E-02  1.211E+00
   1    6    8     4     3    9.7275E+00  1.2689E-01   9.6006E+00  0.000E+00  0.000E+00  0.000E+00  1.06381E+03  6.256E-01  1.000E+01  3.500E-02  1.209E+00
   1    6    8     5     1    1.0432E+01  2.2686E-01   1.0205E+01  0.000E+00  0.000E+00  0.000E+00  1.05868E+03  6.790E-01  1.542E+01  6.166E-02  1.226E+00
   1    7    7     5     2    1.0205E+01  2.7894E-01   9.9265E+00  0.000E+00  0.000E+00  0.000E+00  1.05417E+03  6.732E-01  1.519E+01  7.594E-02  1.224E+00
   1    8    7     5     3    9.9265E+00  1.9221E-01   9.7343E+00  0.000E+00  0.000E+00  0.000E+00  1.04992E+03  6.676E-01  1.497E+01  5.241E-02  1.223E+00
   1    8    6     5     4    9.7343E+00  1.3577E-01   9.5985E+00  0.000E+00  0.000E+00  0.000E+00  1.04691E+03  6.637E-01  1.482E+01  3.706E-02  1.221E+00
   1    9    6     6     1    3.9853E+01  2.7671E-01   3.9576E+01  0.000E+00  0.000E+00  0.000E+00  1.04434E+03  1.612E+00  1.200E+01  6.000E-02  1.537E+00
   1   10    7     6     2    3.9576E+01  2.7631E-01   3.9300E+01  0.000E+00  0.000E+00  0.000E+00  1.03979E+03  1.605E+00  1.200E+01  6.000E-02  1.535E+00
   1   11    7     6     3    3.9300E+01  2.7590E-01   3.9024E+01  0.000E+00  0.000E+00  0.000E+00  1.03523E+03  1.598E+00  1.200E+01  6.000E-02  1.533E+00
   1   12    7     6     4    3.9024E+01  2.7550E-01   3.8748E+01  0.000E+00  0.000E+00  0.000E+00  1.03068E+03  1.592E+00  1.200E+01  6.000E-02  1.531E+00
   1   13    7     6     5    3.8748E+01  8.1561E-03   3.8740E+01  0.000E+00  0.000E+00  0.000E+00  1.02750E+03  1.588E+00  1.200E+01  2.400E-02  1.133E-01
   1   14    9     7     1    1.5000E+02  1.3359E+00   1.4866E+02  0.000E+00  0.000E+00  0.000E+00  1.03987E+03  2.288E+00  5.529E+01  5.593E-01  7.962E-01
   1   13    8     7     2    1.4866E+02  1.8207E+00   1.4684E+02  0.000E+00  0.000E+00  0.000E+00  1.03478E+03  2.279E+00  5.526E+01  6.148E-01  9.872E-01
   1   13    7     7     3    1.4684E+02  1.4144E+00   1.4543E+02  0.000E+00  0.000E+00  0.000E+00  1.02969E+03  2.271E+00  5.522E+01  5.585E-01  8.442E-01
   1   13    6     8     1    1.8417E+02  9.0367E-01   1.8327E+02  0.000E+00  0.000E+00  0.000E+00  1.02491E+03  3.039E+00  4.407E+01  4.491E-01  6.707E-01
   1   13    5     8     2    1.8327E+02  1.3056E-01   1.8313E+02  0.000E+00  0.000E+00  0.000E+00  1.01866E+03  3.036E+00  4.402E+01  4.486E-01  9.700E-02
   1   13    4     8     3    1.8313E+02 -2.7452E+00   1.8588E+02  0.000E+00  0.000E+00  0.000E+00  1.01242E+03  3.044E+00  4.414E+01  4.498E+00 -2.034E-01
   1   13    3     8     4    1.8588E+02 -3.8472E+00   1.8973E+02  0.000E+00  0.000E+00  0.000E+00  1.00619E+03  3.065E+00  4.444E+01  4.528E+00 -2.832E-01
   1   13    2     8     5    1.8973E+02 -2.9373E+00   1.9266E+02  0.000E+00  0.000E+00  0.000E+00  9.99960E+02  3.085E+00  4.474E+01  4.559E+00 -2.148E-01
   1   13    1     8     6    1.9266E+02 -2.1795E+00   1.9484E+02  0.000E+00  0.000E+00  0.000E+00  9.94976E+02  3.101E+00  4.496E+01  2.749E+00 -2.643E-01
   1    8    6     9     1    2.6477E+01  0.0000E+00   2.6477E+01  0.000E+00  0.000E+00  0.000E+00  1.08281E+03  4.064E+00  4.000E+00  0.000E+00  2.355E+00
   1    8    5     9     2    2.6477E+01  0.0000E+00   2.6477E+01  0.000E+00  0.000E+00  0.000E+00  1.08231E+03  4.064E+00  4.000E+00  0.000E+00  2.355E+00



 UBDSV3 SAVING "           GW ET" ON UNIT  61 AT TIME STEP  5, STRESS PERIOD   7
 UBDSV3 SAVING "    UZF RECHARGE" ON UNIT  61 AT TIME STEP  5, STRESS PERIOD   7
 UBDSV3 SAVING " SURFACE LEAKAGE" ON UNIT  61 AT TIME STEP  5, STRESS PERIOD   7
 UBDSV3 SAVING "       HORT+DUNN" ON UNIT  61 AT TIME STEP  5, STRESS PERIOD   7
 UBDSV3 SAVING "  STORAGE CHANGE" ON UNIT  61 AT TIME STEP  5, STRESS PERIOD   7


UNSATURATED ZONE PACKAGE VOLUMETRIC BUDGET FOR  TIME STEP     5 STRESS PERIOD    7
  ------------------------------------------------------------------------------



     CUMULATIVE VOLUMES      L**3       RATES FOR THIS TIME STEP      L**3/T
     ------------------                 ------------------------

           IN:                                      IN:
           ---                                      ---
        INFILTRATION =    98363648.2385          INFILTRATION =          30.8855

          OUT:                                     OUT:
          ----                                     ----
              UZF ET =    78000696.2603                UZF ET =          26.6218
        UZF RECHARGE =       73224.0000          UZF RECHARGE =       0.0000E+00

            IN - OUT =    20289727.9783              IN - OUT =           4.2637

          STORAGE:                                 STORAGE:
          --------                                 --------
      STORAGE CHANGE =    20289727.0419        STORAGE CHANGE =           4.2637

 PERCENT DISCREPANCY IS DIFFERENCE BETWEEN IN-OUT MINUS CHANGE IN STORAGE
 DIVIDED BY THE AVERAGE OF IN AND OUT TIMES 100

 PERCENT DISCREPANCY =           0.00     PERCENT DISCREPANCY =           0.00






 

            AG WELLS      PERIOD    7   STEP   5
 AG WELL      1   LAYER   1   ROW     6   COL     4   RATE     0.00000    
 AG WELL      2   LAYER   1   ROW     6   COL     5   RATE     0.00000    
 AG WELL      3   LAYER   1   ROW     7   COL     4   RATE     0.00000    
 AG WELL      4   LAYER   1   ROW     7   COL     5   RATE     0.00000    
 AG WELL      5   LAYER   1   ROW     8   COL     4   RATE     0.00000    
 AG WELL      6   LAYER   1   ROW     8   COL     5   RATE     0.00000    
 
 

   DIVERSION SEGMENTS     PERIOD    7   STEP   5
 SEGMENT      9   RATE     26.4774    
 
 

        SW IRRIGATION     PERIOD    7   STEP   5
 SEGMENT      9   ROW     6   COL     4   RATE     4.41299    
 SEGMENT      9   ROW     6   COL     5   RATE     4.41299    
 SEGMENT      9   ROW     7   COL     4   RATE     4.41299    
 SEGMENT      9   ROW     7   COL     5   RATE     4.41299    
 SEGMENT      9   ROW     8   COL     4   RATE     4.41299    
 SEGMENT      9   ROW     8   COL     5   RATE     4.41299    
 
 

        GW IRRIGATION     PERIOD    7   STEP   5
 AG WELL      1   ROW     6   COL     4   RATE     0.00000    
 AG WELL      2   ROW     6   COL     5   RATE     0.00000    
 AG WELL      3   ROW     7   COL     4   RATE     0.00000    
 AG WELL      4   ROW     7   COL     5   RATE     0.00000    
 AG WELL      5   ROW     8   COL     4   RATE     0.00000    
 AG WELL      6   ROW     8   COL     5   RATE     0.00000    
 
1
  VOLUMETRIC BUDGET FOR AGRICULTURAL FIELDS AT  END OF TIME STEP    5, STRESS PERIOD   7
  ------------------------------------------------------------------------------

     CUMULATIVE VOLUMES      L**3       RATES FOR THIS TIME STEP      L**3/T
     ------------------                 ------------------------

           IN:                                      IN:
           ---                                      ---
               AG WELLS  =       29478.1953                 AG WELLS  =           0.0000
      DIVERSION SEGMENTS =    38399080.0000        DIVERSION SEGMENTS =          26.4774
           GW IRRIGATION =           0.0000             GW IRRIGATION =           0.0000
           SW IRRIGATION =           0.0000             SW IRRIGATION =           0.0000
        SYSTEM LOSSES GW =           0.0000          SYSTEM LOSSES GW =           0.0000
        SYSTEM LOSSES SW =           0.0000          SYSTEM LOSSES SW =           0.0000

                TOTAL IN =    38428560.0000                  TOTAL IN =          26.4774

          OUT:                                     OUT:
          ----                                     ----
               AG WELLS  =           0.0000                 AG WELLS  =           0.0000
      DIVERSION SEGMENTS =           0.0000        DIVERSION SEGMENTS =           0.0000
           GW IRRIGATION =       29478.1953             GW IRRIGATION =           0.0000
           SW IRRIGATION =    38399848.0000             SW IRRIGATION =          26.4780
        SYSTEM LOSSES GW =           0.0000          SYSTEM LOSSES GW =           0.0000
        SYSTEM LOSSES SW =           0.0000          SYSTEM LOSSES SW =           0.0000

               TOTAL OUT =    38429328.0000                 TOTAL OUT =          26.4780

                IN - OUT =        -768.0000                  IN - OUT =      -5.3024E-04

     PERCENT DISCREPANCY =          -0.00         PERCENT DISCREPANCY =          -0.00



1
  VOLUMETRIC BUDGET FOR ENTIRE MODEL AT END OF TIME STEP    5, STRESS PERIOD   7
  ------------------------------------------------------------------------------

     CUMULATIVE VOLUMES      L**3       RATES FOR THIS TIME STEP      L**3/T
     ------------------                 ------------------------

           IN:                                      IN:
           ---                                      ---
             STORAGE     =    10289249.0000               STORAGE     =           1.8449
       CONSTANT HEAD     =           0.0000         CONSTANT HEAD     =           0.0000
     HEAD DEP BOUNDS     =     3907048.7500       HEAD DEP BOUNDS     =           0.2858
      STREAM LEAKAGE     =   166617104.0000        STREAM LEAKAGE     =          12.6379
        UZF RECHARGE     =       73223.9531          UZF RECHARGE     =           0.0000
               GW ET     =           0.0000                 GW ET     =           0.0000
     SURFACE LEAKAGE     =           0.0000       SURFACE LEAKAGE     =           0.0000
           AG WELLS      =           0.0000             AG WELLS      =           0.0000

                TOTAL IN =   180886624.0000                  TOTAL IN =          14.7686

          OUT:                                     OUT:
          ----                                     ----
             STORAGE     =    32712380.0000               STORAGE     =           2.2559
       CONSTANT HEAD     =           0.0000         CONSTANT HEAD     =           0.0000
     HEAD DEP BOUNDS     =     3988107.7500       HEAD DEP BOUNDS     =           0.2952
      STREAM LEAKAGE     =   143128192.0000        STREAM LEAKAGE     =          11.7093
        UZF RECHARGE     =           0.0000          UZF RECHARGE     =           0.0000
               GW ET     =     1031881.6875                 GW ET     =           0.5081
     SURFACE LEAKAGE     =           0.0000       SURFACE LEAKAGE     =           0.0000
           AG WELLS      =       29478.1953             AG WELLS      =           0.0000

               TOTAL OUT =   180890032.0000                 TOTAL OUT =          14.7685

                IN - OUT =       -3408.0000                  IN - OUT =       1.4687E-04

     PERCENT DISCREPANCY =          -0.00         PERCENT DISCREPANCY =           0.00






         TIME SUMMARY AT END OF TIME STEP    5 IN STRESS PERIOD    7
                    SECONDS     MINUTES      HOURS       DAYS        YEARS
                    -----------------------------------------------------------
   TIME STEP LENGTH  87667.      1461.1      24.352      1.0147     2.77799E-03
 STRESS PERIOD TIME 4.38333E+05  7305.6      121.76      5.0733     1.38899E-02
         TOTAL TIME 1.36747E+07 2.27912E+05  3798.5      158.27     0.43333    
1
 
 SOLVING FOR HEAD 
                                                   Max.-Head-Change                         Max.-Flux-Residual
  Residual-Control   Outer-Iter.   Inner-Iter.     Column Row Layer    Maximum-Head-Change  Column Row Layer    Maximum-Flux-Residual          L2-NORM 
          0                 1           2             2    2     1       0.4974692787E-02       2    2    1         0.2590859590E+00      0.5911925428E+00
          0                 2           2             4    7     1      -0.3609157312E-01       5    6    1        -0.1939918221E+01      0.4773980268E+01
          0                 3           2             4    7     1       0.3754613131E-01       5    6    1         0.2073004040E+01      0.5094138939E+01
          0                 4           2             4    7     1      -0.1494189423E-02       4    6    1        -0.8553344455E-01      0.2098402118E+00
          0                 5           1             4    7     1       0.1842396631E-04       4    6    1         0.1084060396E-02      0.2847046334E-02

    ------------------------------------------------
       NWT REQUIRED            5 OUTER ITERATIONS 
       AND A TOTAL OF          9 INNER ITERATIONS.
    ------------------------------------------------

 NO OUTPUT CONTROL FOR STRESS PERIOD    7   TIME STEP    6
 
 SOLVING FOR HEAD 
                                                   Max.-Head-Change                         Max.-Flux-Residual
  Residual-Control   Outer-Iter.   Inner-Iter.     Column Row Layer    Maximum-Head-Change  Column Row Layer    Maximum-Flux-Residual          L2-NORM 
          0                 1           2             2    2     1       0.4955960477E-02       2    2    1         0.2581027636E+00      0.6359390354E+00
          0                 2           2             4    7     1      -0.2366172484E-01       5    6    1        -0.1272318049E+01      0.3132521992E+01
          0                 3           2             4    7     1       0.2405113364E-01       5    6    1         0.1327949486E+01      0.3263936709E+01
          0                 4           2             4    6     1      -0.7026289156E-03       4    6    1        -0.4046479574E-01      0.9825480478E-01
          0                 5           1             4    7     1       0.6996786433E-04       4    6    1         0.4090353496E-02      0.1082748695E-01

    ------------------------------------------------
       NWT REQUIRED            5 OUTER ITERATIONS 
       AND A TOTAL OF          9 INNER ITERATIONS.
    ------------------------------------------------

 NO OUTPUT CONTROL FOR STRESS PERIOD    7   TIME STEP    7
 
 SOLVING FOR HEAD 
                                                   Max.-Head-Change                         Max.-Flux-Residual
  Residual-Control   Outer-Iter.   Inner-Iter.     Column Row Layer    Maximum-Head-Change  Column Row Layer    Maximum-Flux-Residual          L2-NORM 
          0                 1           2             2    2     1       0.4937454857E-02       4   13    1         0.2704259995E+00      0.6533150916E+00
          0                 2           2             4    7     1      -0.4278475597E-01       5    6    1        -0.2299392814E+01      0.5659567707E+01
          0                 3           2             4    7     1       0.4451243077E-01       5    6    1         0.2457610071E+01      0.6039099131E+01
          0                 4           2             4    7     1      -0.1771397400E-02       4    6    1        -0.1012773049E+00      0.2487085090E+00
          0                 5           1             4    7     1       0.2184204526E-04       4    6    1         0.1283565173E-02      0.3371812947E-02

    ------------------------------------------------
       NWT REQUIRED            5 OUTER ITERATIONS 
       AND A TOTAL OF          9 INNER ITERATIONS.
    ------------------------------------------------

 NO OUTPUT CONTROL FOR STRESS PERIOD    7   TIME STEP    8
 
 SOLVING FOR HEAD 
                                                   Max.-Head-Change                         Max.-Flux-Residual
  Residual-Control   Outer-Iter.   Inner-Iter.     Column Row Layer    Maximum-Head-Change  Column Row Layer    Maximum-Flux-Residual          L2-NORM 
          0                 1           2             4   13     1       0.5217868344E-02       4   13    1         0.3359998813E+00      0.7132061077E+00
          0                 2           2             4    7     1      -0.3718828562E-01       5    6    1        -0.1998797730E+01      0.4921042387E+01
          0                 3           2             4    7     1       0.3868678581E-01       5    6    1         0.2135977184E+01      0.5248895706E+01
          0                 4           2             4    7     1      -0.1539583942E-02       4    6    1        -0.8813286053E-01      0.2162150639E+00
          0                 5           1             4    7     1       0.1898369795E-04       4    6    1         0.1117005820E-02      0.2932183573E-02

    ------------------------------------------------
       NWT REQUIRED            5 OUTER ITERATIONS 
       AND A TOTAL OF          9 INNER ITERATIONS.
    ------------------------------------------------

 NO OUTPUT CONTROL FOR STRESS PERIOD    7   TIME STEP    9
 
 SOLVING FOR HEAD 
                                                   Max.-Head-Change                         Max.-Flux-Residual
  Residual-Control   Outer-Iter.   Inner-Iter.     Column Row Layer    Maximum-Head-Change  Column Row Layer    Maximum-Flux-Residual          L2-NORM 
          0                 1           2             4   13     1       0.5805075959E-02       4   13    1         0.3738333819E+00      0.7537035012E+00
          0                 2           2             4    7     1      -0.3619837186E-01       5    6    1        -0.1945613008E+01      0.4790838345E+01
          0                 3           2             4    7     1       0.3765611944E-01       5    6    1         0.2079073101E+01      0.5109094724E+01
          0                 4           2             4    7     1      -0.1498573850E-02       4    6    1        -0.8581597992E-01      0.2104695770E+00
          0                 5           1             4    7     1       0.1847802758E-04       4    6    1         0.1087649909E-02      0.2854107167E-02

    ------------------------------------------------
       NWT REQUIRED            5 OUTER ITERATIONS 
       AND A TOTAL OF          9 INNER ITERATIONS.
    ------------------------------------------------

 OUTPUT CONTROL FOR STRESS PERIOD    7   TIME STEP   10
    PRINT BUDGET
    SAVE BUDGET
 UBDSV1 SAVING "         STORAGE" ON UNIT 102 AT TIME STEP 10, STRESS PERIOD   7
 UBDSV2 SAVING "   CONSTANT HEAD" ON UNIT 102 AT TIME STEP 10, STRESS PERIOD   7
 UBDSV1 SAVING "FLOW RIGHT FACE " ON UNIT 102 AT TIME STEP 10, STRESS PERIOD   7
 UBDSV1 SAVING "FLOW FRONT FACE " ON UNIT 102 AT TIME STEP 10, STRESS PERIOD   7

  HEAD DEP BOUNDS   PERIOD    7   STEP    10
 BOUNDARY      1   LAYER   1   ROW    13   COL     1   RATE   -0.294700    
 BOUNDARY      2   LAYER   1   ROW    14   COL     9   RATE    0.285765    



 STREAM LISTING     PERIOD      7   STEP       10

 LAYER ROW COL. STREAM  RCH.  FLOW INTO     FLOW TO   FLOW OUT OF   OVRLND.     DIRECT     STREAM       STREAM     STREAM     STREAM   STREAMBED  STREAMBED
                SEG.NO.  NO.  STRM. RCH.    AQUIFER    STRM. RCH.    RUNOFF     PRECIP       ET          HEAD       DEPTH      WIDTH   CONDCTNC.   GRADIENT

   1    1    1     1     1    6.2250E+01  3.7978E-01   6.1870E+01  0.000E+00  0.000E+00  0.000E+00  1.09460E+03  1.553E+00  1.854E+01  8.342E-02  1.518E+00
   1    2    2     1     2    6.1870E+01  5.8817E-01   6.1282E+01  0.000E+00  0.000E+00  0.000E+00  1.08961E+03  1.547E+00  1.848E+01  1.294E-01  1.516E+00
   1    3    3     1     3    6.1282E+01  5.0163E-01   6.0781E+01  0.000E+00  0.000E+00  0.000E+00  1.08396E+03  1.540E+00  1.841E+01  1.105E-01  1.513E+00
   1    3    4     1     4    6.0781E+01  4.6194E-01   6.0319E+01  0.000E+00  0.000E+00  0.000E+00  1.07894E+03  1.534E+00  1.836E+01  1.019E-01  1.511E+00
   1    4    5     2     1    5.8319E+01  3.9026E-01   5.7928E+01  0.000E+00  0.000E+00  0.000E+00  1.07394E+03  2.003E+00  1.200E+01  7.800E-02  1.668E+00
   1    5    6     2     2    5.7928E+01  2.9977E-01   5.7629E+01  0.000E+00  0.000E+00  0.000E+00  1.06851E+03  1.996E+00  1.200E+01  6.000E-02  1.665E+00
   1    6    6     2     3    5.7629E+01  2.9940E-01   5.7329E+01  0.000E+00  0.000E+00  0.000E+00  1.06378E+03  1.990E+00  1.200E+01  6.000E-02  1.663E+00
   1    7    6     2     4    5.7329E+01  2.9903E-01   5.7030E+01  0.000E+00  0.000E+00  0.000E+00  1.05906E+03  1.984E+00  1.200E+01  6.000E-02  1.661E+00
   1    8    6     2     5    5.7030E+01  2.9865E-01   5.6732E+01  0.000E+00  0.000E+00  0.000E+00  1.05434E+03  1.978E+00  1.200E+01  6.000E-02  1.659E+00
   1    3    5     3     1    2.0000E+00  2.8252E-01   1.7175E+00  0.000E+00  0.000E+00  0.000E+00  1.07555E+03  1.909E+00  9.636E+00  7.227E-02  1.955E+00
   1    3    6     3     2    1.7175E+00  2.4905E-01   1.4684E+00  0.000E+00  0.000E+00  0.000E+00  1.07264E+03  1.727E+00  8.909E+00  6.682E-02  1.864E+00
   1    3    7     3     3    1.4684E+00  1.9718E-01   1.2712E+00  0.000E+00  0.000E+00  0.000E+00  1.06987E+03  1.555E+00  8.218E+00  5.547E-02  1.777E+00
   1    4    8     3     4    1.2712E+00  2.2567E-01   1.0456E+00  0.000E+00  0.000E+00  0.000E+00  1.06682E+03  1.364E+00  7.455E+00  6.709E-02  1.682E+00
   1    5    8     3     5    1.0456E+00  1.5790E-01   8.8768E-01  0.000E+00  0.000E+00  0.000E+00  1.06362E+03  1.164E+00  6.655E+00  4.991E-02  1.582E+00
   1    6    8     3     6    8.8768E-01  5.5980E-02   8.3170E-01  0.000E+00  0.000E+00  0.000E+00  1.06158E+03  1.036E+00  6.145E+00  1.844E-02  1.518E+00
   1    5   10     4     1    1.0000E+01  9.0919E-02   9.9091E+00  0.000E+00  0.000E+00  0.000E+00  1.07836E+03  6.368E-01  1.000E+01  2.500E-02  1.212E+00
   1    5    9     4     2    9.9091E+00  1.8158E-01   9.7275E+00  0.000E+00  0.000E+00  0.000E+00  1.07154E+03  6.315E-01  1.000E+01  5.000E-02  1.211E+00
   1    6    8     4     3    9.7275E+00  1.2689E-01   9.6006E+00  0.000E+00  0.000E+00  0.000E+00  1.06381E+03  6.256E-01  1.000E+01  3.500E-02  1.209E+00
   1    6    8     5     1    1.0432E+01  2.2686E-01   1.0205E+01  0.000E+00  0.000E+00  0.000E+00  1.05868E+03  6.790E-01  1.542E+01  6.166E-02  1.226E+00
   1    7    7     5     2    1.0205E+01  2.7894E-01   9.9265E+00  0.000E+00  0.000E+00  0.000E+00  1.05417E+03  6.732E-01  1.519E+01  7.594E-02  1.224E+00
   1    8    7     5     3    9.9265E+00  1.9221E-01   9.7343E+00  0.000E+00  0.000E+00  0.000E+00  1.04992E+03  6.676E-01  1.497E+01  5.241E-02  1.223E+00
   1    8    6     5     4    9.7343E+00  1.3577E-01   9.5985E+00  0.000E+00  0.000E+00  0.000E+00  1.04691E+03  6.637E-01  1.482E+01  3.706E-02  1.221E+00
   1    9    6     6     1    4.3016E+01  2.8126E-01   4.2734E+01  0.000E+00  0.000E+00  0.000E+00  1.04442E+03  1.688E+00  1.200E+01  6.000E-02  1.563E+00
   1   10    7     6     2    4.2734E+01  2.8086E-01   4.2453E+01  0.000E+00  0.000E+00  0.000E+00  1.03986E+03  1.681E+00  1.200E+01  6.000E-02  1.560E+00
   1   11    7     6     3    4.2453E+01  2.8046E-01   4.2173E+01  0.000E+00  0.000E+00  0.000E+00  1.03531E+03  1.674E+00  1.200E+01  6.000E-02  1.558E+00
   1   12    7     6     4    4.2173E+01  2.8006E-01   4.1893E+01  0.000E+00  0.000E+00  0.000E+00  1.03076E+03  1.668E+00  1.200E+01  6.000E-02  1.556E+00
   1   13    7     6     5    4.1893E+01  9.9376E-03   4.1883E+01  0.000E+00  0.000E+00  0.000E+00  1.02757E+03  1.664E+00  1.200E+01  2.400E-02  1.380E-01
   1   14    9     7     1    1.5000E+02  1.3359E+00   1.4866E+02  0.000E+00  0.000E+00  0.000E+00  1.03987E+03  2.288E+00  5.529E+01  5.593E-01  7.962E-01
   1   13    8     7     2    1.4866E+02  1.8202E+00   1.4684E+02  0.000E+00  0.000E+00  0.000E+00  1.03478E+03  2.279E+00  5.526E+01  6.148E-01  9.869E-01
   1   13    7     7     3    1.4684E+02  1.4133E+00   1.4543E+02  0.000E+00  0.000E+00  0.000E+00  1.02969E+03  2.271E+00  5.522E+01  5.585E-01  8.436E-01
   1   13    6     8     1    1.8731E+02  9.1911E-01   1.8639E+02  0.000E+00  0.000E+00  0.000E+00  1.02493E+03  3.059E+00  4.435E+01  4.520E-01  6.779E-01
   1   13    5     8     2    1.8639E+02  1.4127E-01   1.8625E+02  0.000E+00  0.000E+00  0.000E+00  1.01868E+03  3.055E+00  4.430E+01  4.515E-01  1.043E-01
   1   13    4     8     3    1.8625E+02 -2.6062E+00   1.8886E+02  0.000E+00  0.000E+00  0.000E+00  1.01244E+03  3.063E+00  4.441E+01  4.526E+00 -1.919E-01
   1   13    3     8     4    1.8886E+02 -3.7119E+00   1.9257E+02  0.000E+00  0.000E+00  0.000E+00  1.00621E+03  3.082E+00  4.469E+01  4.554E+00 -2.717E-01
   1   13    2     8     5    1.9257E+02 -2.7731E+00   1.9534E+02  0.000E+00  0.000E+00  0.000E+00  9.99977E+02  3.102E+00  4.498E+01  4.583E+00 -2.017E-01
   1   13    1     8     6    1.9534E+02 -2.1105E+00   1.9745E+02  0.000E+00  0.000E+00  0.000E+00  9.94991E+02  3.116E+00  4.519E+01  2.763E+00 -2.546E-01
   1    8    6     9     1    2.3315E+01  0.0000E+00   2.3315E+01  0.000E+00  0.000E+00  0.000E+00  1.08252E+03  3.766E+00  4.000E+00  0.000E+00  2.255E+00
   1    8    5     9     2    2.3315E+01  0.0000E+00   2.3315E+01  0.000E+00  0.000E+00  0.000E+00  1.08202E+03  3.766E+00  4.000E+00  0.000E+00  2.255E+00



 UBDSV3 SAVING "           GW ET" ON UNIT  61 AT TIME STEP 10, STRESS PERIOD   7
 UBDSV3 SAVING "    UZF RECHARGE" ON UNIT  61 AT TIME STEP 10, STRESS PERIOD   7
 UBDSV3 SAVING " SURFACE LEAKAGE" ON UNIT  61 AT TIME STEP 10, STRESS PERIOD   7
 UBDSV3 SAVING "       HORT+DUNN" ON UNIT  61 AT TIME STEP 10, STRESS PERIOD   7
 UBDSV3 SAVING "  STORAGE CHANGE" ON UNIT  61 AT TIME STEP 10, STRESS PERIOD   7


UNSATURATED ZONE PACKAGE VOLUMETRIC BUDGET FOR  TIME STEP    10 STRESS PERIOD    7
  ------------------------------------------------------------------------------



     CUMULATIVE VOLUMES      L**3       RATES FOR THIS TIME STEP      L**3/T
     ------------------                 ------------------------

           IN:                                      IN:
           ---                                      ---
        INFILTRATION =   110260478.2415          INFILTRATION =          27.7225

          OUT:                                     OUT:
          ----                                     ----
              UZF ET =    89661994.4507                UZF ET =          26.6081
        UZF RECHARGE =       73224.0000          UZF RECHARGE =       0.0000E+00

            IN - OUT =    20525259.7908              IN - OUT =           1.1144

          STORAGE:                                 STORAGE:
          --------                                 --------
      STORAGE CHANGE =    20525258.7696        STORAGE CHANGE =           1.1144

 PERCENT DISCREPANCY IS DIFFERENCE BETWEEN IN-OUT MINUS CHANGE IN STORAGE
 DIVIDED BY THE AVERAGE OF IN AND OUT TIMES 100

 PERCENT DISCREPANCY =           0.00     PERCENT DISCREPANCY =           0.00






 

            AG WELLS      PERIOD    7   STEP  10
 AG WELL      1   LAYER   1   ROW     6   COL     4   RATE     0.00000    
 AG WELL      2   LAYER   1   ROW     6   COL     5   RATE     0.00000    
 AG WELL      3   LAYER   1   ROW     7   COL     4   RATE     0.00000    
 AG WELL      4   LAYER   1   ROW     7   COL     5   RATE     0.00000    
 AG WELL      5   LAYER   1   ROW     8   COL     4   RATE     0.00000    
 AG WELL      6   LAYER   1   ROW     8   COL     5   RATE     0.00000    
 
 

   DIVERSION SEGMENTS     PERIOD    7   STEP  10
 SEGMENT      9   RATE     23.3146    
 
 

        SW IRRIGATION     PERIOD    7   STEP  10
 SEGMENT      9   ROW     6   COL     4   RATE     3.88584    
 SEGMENT      9   ROW     6   COL     5   RATE     3.88584    
 SEGMENT      9   ROW     7   COL     4   RATE     3.88584    
 SEGMENT      9   ROW     7   COL     5   RATE     3.88584    
 SEGMENT      9   ROW     8   COL     4   RATE     3.88584    
 SEGMENT      9   ROW     8   COL     5   RATE     3.88584    
 
 

        GW IRRIGATION     PERIOD    7   STEP  10
 AG WELL      1   ROW     6   COL     4   RATE     0.00000    
 AG WELL      2   ROW     6   COL     5   RATE     0.00000    
 AG WELL      3   ROW     7   COL     4   RATE     0.00000    
 AG WELL      4   ROW     7   COL     5   RATE     0.00000    
 AG WELL      5   ROW     8   COL     4   RATE     0.00000    
 AG WELL      6   ROW     8   COL     5   RATE     0.00000    
 
1
  VOLUMETRIC BUDGET FOR AGRICULTURAL FIELDS AT  END OF TIME STEP   10, STRESS PERIOD   7
  ------------------------------------------------------------------------------

     CUMULATIVE VOLUMES      L**3       RATES FOR THIS TIME STEP      L**3/T
     ------------------                 ------------------------

           IN:                                      IN:
           ---                                      ---
               AG WELLS  =       36084.3633                 AG WELLS  =           0.0000
      DIVERSION SEGMENTS =    48363760.0000        DIVERSION SEGMENTS =          23.3146
           GW IRRIGATION =           0.0000             GW IRRIGATION =           0.0000
           SW IRRIGATION =           0.0000             SW IRRIGATION =           0.0000
        SYSTEM LOSSES GW =           0.0000          SYSTEM LOSSES GW =           0.0000
        SYSTEM LOSSES SW =           0.0000          SYSTEM LOSSES SW =           0.0000

                TOTAL IN =    48399844.0000                  TOTAL IN =          23.3146

          OUT:                                     OUT:
          ----                                     ----
               AG WELLS  =           0.0000                 AG WELLS  =           0.0000
      DIVERSION SEGMENTS =           0.0000        DIVERSION SEGMENTS =           0.0000
           GW IRRIGATION =       36084.3633             GW IRRIGATION =           0.0000
           SW IRRIGATION =    48364724.0000             SW IRRIGATION =          23.3150
        SYSTEM LOSSES GW =           0.0000          SYSTEM LOSSES GW =           0.0000
        SYSTEM LOSSES SW =           0.0000          SYSTEM LOSSES SW =           0.0000

               TOTAL OUT =    48400808.0000                 TOTAL OUT =          23.3150

                IN - OUT =        -964.0000                  IN - OUT =      -4.6539E-04

     PERCENT DISCREPANCY =          -0.00         PERCENT DISCREPANCY =          -0.00



1
  VOLUMETRIC BUDGET FOR ENTIRE MODEL AT END OF TIME STEP   10, STRESS PERIOD   7
  ------------------------------------------------------------------------------

     CUMULATIVE VOLUMES      L**3       RATES FOR THIS TIME STEP      L**3/T
     ------------------                 ------------------------

           IN:                                      IN:
           ---                                      ---
             STORAGE     =    10807963.0000               STORAGE     =           1.0216
       CONSTANT HEAD     =           0.0000         CONSTANT HEAD     =           0.0000
     HEAD DEP BOUNDS     =     4032308.7500       HEAD DEP BOUNDS     =           0.2858
      STREAM LEAKAGE     =   172179536.0000        STREAM LEAKAGE     =          12.6825
        UZF RECHARGE     =       73223.9531          UZF RECHARGE     =           0.0000
               GW ET     =           0.0000                 GW ET     =           0.0000
     SURFACE LEAKAGE     =           0.0000       SURFACE LEAKAGE     =           0.0000
           AG WELLS      =           0.0000             AG WELLS      =           0.0000

                TOTAL IN =   187093024.0000                  TOTAL IN =          13.9899

          OUT:                                     OUT:
          ----                                     ----
             STORAGE     =    33692084.0000               STORAGE     =           2.2258
       CONSTANT HEAD     =           0.0000         CONSTANT HEAD     =           0.0000
     HEAD DEP BOUNDS     =     4117374.5000       HEAD DEP BOUNDS     =           0.2947
      STREAM LEAKAGE     =   148064448.0000        STREAM LEAKAGE     =          11.2017
        UZF RECHARGE     =           0.0000          UZF RECHARGE     =           0.0000
               GW ET     =     1186373.6250                 GW ET     =           0.2675
     SURFACE LEAKAGE     =           0.0000       SURFACE LEAKAGE     =           0.0000
           AG WELLS      =       36084.3633             AG WELLS      =           0.0000

               TOTAL OUT =   187096352.0000                 TOTAL OUT =          13.9898

                IN - OUT =       -3328.0000                  IN - OUT =       1.3065E-04

     PERCENT DISCREPANCY =          -0.00         PERCENT DISCREPANCY =           0.00






         TIME SUMMARY AT END OF TIME STEP   10 IN STRESS PERIOD    7
                    SECONDS     MINUTES      HOURS       DAYS        YEARS
                    -----------------------------------------------------------
   TIME STEP LENGTH  87667.      1461.1      24.352      1.0147     2.77799E-03
 STRESS PERIOD TIME 8.76667E+05  14611.      243.52      10.147     2.77799E-02
         TOTAL TIME 1.41131E+07 2.35218E+05  3920.3      163.35     0.44722    
1
 
 SOLVING FOR HEAD 
                                                   Max.-Head-Change                         Max.-Flux-Residual
  Residual-Control   Outer-Iter.   Inner-Iter.     Column Row Layer    Maximum-Head-Change  Column Row Layer    Maximum-Flux-Residual          L2-NORM 
          0                 1           2             4   13     1       0.6238439735E-02       4   13    1         0.4017403983E+00      0.7865742458E+00
          0                 2           2             4    7     1      -0.1202225412E-01       5    6    1        -0.6471398295E+00      0.1597609604E+01
          0                 3           2             4    7     1       0.3935562140E-02       5    6    1         0.2173823961E+00      0.5496200984E+00
          0                 4           2             2   13     1      -0.9421476103E-03       4   13    1        -0.5801702653E-01      0.1076503419E+00
          0                 5           2             4    7     1       0.6009451923E-02       5    6    1         0.3505046083E+00      0.8648866739E+00
          0                 6           2             4    7     1       0.1659374058E-02       4    7    1         0.9678339879E-01      0.2381565593E+00
          0                 7           2             4    7     1       0.4735804957E-03       4    7    1         0.2762140945E-01      0.6801848748E-01
          0                 8           1             4    7     1       0.5300924187E-04       4    7    1         0.3091734663E-02      0.7828694652E-02

    ------------------------------------------------
       NWT REQUIRED            8 OUTER ITERATIONS 
       AND A TOTAL OF         15 INNER ITERATIONS.
    ------------------------------------------------

 NO OUTPUT CONTROL FOR STRESS PERIOD    7   TIME STEP   11
 
 SOLVING FOR HEAD 
                                                   Max.-Head-Change                         Max.-Flux-Residual
  Residual-Control   Outer-Iter.   Inner-Iter.     Column Row Layer    Maximum-Head-Change  Column Row Layer    Maximum-Flux-Residual          L2-NORM 
          0                 1           2             4   13     1       0.6007837854E-02       4   13    1         0.3867908812E+00      0.7770323151E+00
          0                 2           2             4    7     1      -0.3986231137E-01       5    6    1        -0.2142380888E+01      0.5275325668E+01
          0                 3           2             4    7     1       0.4146934669E-01       5    6    1         0.2289598493E+01      0.5626375831E+01
          0                 4           2             4    7     1      -0.1650314421E-02       4    6    1        -0.9444305191E-01      0.2317522114E+00
          0                 5           1             4    7     1       0.2034904678E-04       4    6    1         0.1196973900E-02      0.3142929166E-02

    ------------------------------------------------
       NWT REQUIRED            5 OUTER ITERATIONS 
       AND A TOTAL OF          9 INNER ITERATIONS.
    ------------------------------------------------

 NO OUTPUT CONTROL FOR STRESS PERIOD    7   TIME STEP   12
 
 SOLVING FOR HEAD 
                                                   Max.-Head-Change                         Max.-Flux-Residual
  Residual-Control   Outer-Iter.   Inner-Iter.     Column Row Layer    Maximum-Head-Change  Column Row Layer    Maximum-Flux-Residual          L2-NORM 
          0                 1           2             4   13     1       0.6558438401E-02       4   13    1         0.4222833573E+00      0.8175207295E+00
          0                 2           2             4    7     1      -0.4102135485E-01       5    6    1        -0.2204611101E+01      0.5429028703E+01
          0                 3           2             4    7     1       0.4267554475E-01       5    6    1         0.2356190654E+01      0.5790007493E+01
          0                 4           2             4    7     1      -0.1698314253E-02       4    6    1        -0.9717736919E-01      0.2384864925E+00
          0                 5           1             4    7     1       0.2094090271E-04       4    6    1         0.1231625200E-02      0.3233943849E-02

    ------------------------------------------------
       NWT REQUIRED            5 OUTER ITERATIONS 
       AND A TOTAL OF          9 INNER ITERATIONS.
    ------------------------------------------------

 NO OUTPUT CONTROL FOR STRESS PERIOD    7   TIME STEP   13
 
 SOLVING FOR HEAD 
                                                   Max.-Head-Change                         Max.-Flux-Residual
  Residual-Control   Outer-Iter.   Inner-Iter.     Column Row Layer    Maximum-Head-Change  Column Row Layer    Maximum-Flux-Residual          L2-NORM 
          0                 1           2             4   13     1       0.7052661533E-02       4   13    1         0.4541373760E+00      0.8559397963E+00
          0                 2           2             4    7     1      -0.3566614675E-01       5    6    1        -0.1916975077E+01      0.4721971425E+01
          0                 3           2             4    7     1       0.3710105506E-01       5    6    1         0.2048424014E+01      0.5033831352E+01
          0                 4           2             4    7     1      -0.1476495193E-02       4    6    1        -0.8460022223E-01      0.2073902184E+00
          0                 5           1             4    7     1       0.1820578942E-04       4    6    1         0.1072254482E-02      0.2813002880E-02

    ------------------------------------------------
       NWT REQUIRED            5 OUTER ITERATIONS 
       AND A TOTAL OF          9 INNER ITERATIONS.
    ------------------------------------------------

 NO OUTPUT CONTROL FOR STRESS PERIOD    7   TIME STEP   14
 
 SOLVING FOR HEAD 
                                                   Max.-Head-Change                         Max.-Flux-Residual
  Residual-Control   Outer-Iter.   Inner-Iter.     Column Row Layer    Maximum-Head-Change  Column Row Layer    Maximum-Flux-Residual          L2-NORM 
          0                 1           2             4   13     1       0.7226392054E-02       4   13    1         0.4653025342E+00      0.8732916730E+00
          0                 2           2             4    7     1      -0.6026759851E-02       5    6    1        -0.3250803902E+00      0.8088914082E+00
          0                 3           2             4    7     1      -0.4586684528E-02       4    8    1        -0.2463641015E+00      0.6069425358E+00
          0                 4           2             4    7     1       0.5590418655E-02       4    8    1         0.3086436191E+00      0.7678499915E+00
          0                 5           2             4    7     1       0.2589485906E-02       4    7    1         0.1429624192E+00      0.3554804409E+00
          0                 6           2             4    7     1      -0.1353769759E-02       5    8    1        -0.7682306933E-01      0.1904917531E+00
          0                 7           2             4    7     1      -0.2362826582E-02       4    7    1        -0.1340832998E+00      0.3319597815E+00
          0                 8           2             4    7     1       0.4396045596E-02       5    6    1         0.2563944291E+00      0.6329011502E+00
          0                 9           2             4    7     1       0.1250194038E-02       4    7    1         0.7291577714E-01      0.1794093607E+00
          0                10           2             4    7     1       0.3318907533E-03       4    7    1         0.1935685884E-01      0.4767966302E-01
          0                11           1             4    7     1       0.3868352672E-04       4    7    1         0.2256129514E-02      0.5747674828E-02

    ------------------------------------------------
       NWT REQUIRED           11 OUTER ITERATIONS 
       AND A TOTAL OF         21 INNER ITERATIONS.
    ------------------------------------------------

 OUTPUT CONTROL FOR STRESS PERIOD    7   TIME STEP   15
    PRINT BUDGET
    SAVE BUDGET
 UBDSV1 SAVING "         STORAGE" ON UNIT 102 AT TIME STEP 15, STRESS PERIOD   7
 UBDSV2 SAVING "   CONSTANT HEAD" ON UNIT 102 AT TIME STEP 15, STRESS PERIOD   7
 UBDSV1 SAVING "FLOW RIGHT FACE " ON UNIT 102 AT TIME STEP 15, STRESS PERIOD   7
 UBDSV1 SAVING "FLOW FRONT FACE " ON UNIT 102 AT TIME STEP 15, STRESS PERIOD   7

  HEAD DEP BOUNDS   PERIOD    7   STEP    15
 BOUNDARY      1   LAYER   1   ROW    13   COL     1   RATE   -0.294365    
 BOUNDARY      2   LAYER   1   ROW    14   COL     9   RATE    0.285765    



 STREAM LISTING     PERIOD      7   STEP       15

 LAYER ROW COL. STREAM  RCH.  FLOW INTO     FLOW TO   FLOW OUT OF   OVRLND.     DIRECT     STREAM       STREAM     STREAM     STREAM   STREAMBED  STREAMBED
                SEG.NO.  NO.  STRM. RCH.    AQUIFER    STRM. RCH.    RUNOFF     PRECIP       ET          HEAD       DEPTH      WIDTH   CONDCTNC.   GRADIENT

   1    1    1     1     1    6.2250E+01  3.7978E-01   6.1870E+01  0.000E+00  0.000E+00  0.000E+00  1.09460E+03  1.553E+00  1.854E+01  8.342E-02  1.518E+00
   1    2    2     1     2    6.1870E+01  5.8817E-01   6.1282E+01  0.000E+00  0.000E+00  0.000E+00  1.08961E+03  1.547E+00  1.848E+01  1.294E-01  1.516E+00
   1    3    3     1     3    6.1282E+01  5.0163E-01   6.0781E+01  0.000E+00  0.000E+00  0.000E+00  1.08396E+03  1.540E+00  1.841E+01  1.105E-01  1.513E+00
   1    3    4     1     4    6.0781E+01  4.6194E-01   6.0319E+01  0.000E+00  0.000E+00  0.000E+00  1.07894E+03  1.534E+00  1.836E+01  1.019E-01  1.511E+00
   1    4    5     2     1    5.8319E+01  3.9026E-01   5.7928E+01  0.000E+00  0.000E+00  0.000E+00  1.07394E+03  2.003E+00  1.200E+01  7.800E-02  1.668E+00
   1    5    6     2     2    5.7928E+01  2.9977E-01   5.7629E+01  0.000E+00  0.000E+00  0.000E+00  1.06851E+03  1.996E+00  1.200E+01  6.000E-02  1.665E+00
   1    6    6     2     3    5.7629E+01  2.9940E-01   5.7329E+01  0.000E+00  0.000E+00  0.000E+00  1.06378E+03  1.990E+00  1.200E+01  6.000E-02  1.663E+00
   1    7    6     2     4    5.7329E+01  2.9903E-01   5.7030E+01  0.000E+00  0.000E+00  0.000E+00  1.05906E+03  1.984E+00  1.200E+01  6.000E-02  1.661E+00
   1    8    6     2     5    5.7030E+01  2.9865E-01   5.6732E+01  0.000E+00  0.000E+00  0.000E+00  1.05434E+03  1.978E+00  1.200E+01  6.000E-02  1.659E+00
   1    3    5     3     1    2.0000E+00  2.8252E-01   1.7175E+00  0.000E+00  0.000E+00  0.000E+00  1.07555E+03  1.909E+00  9.636E+00  7.227E-02  1.955E+00
   1    3    6     3     2    1.7175E+00  2.4905E-01   1.4684E+00  0.000E+00  0.000E+00  0.000E+00  1.07264E+03  1.727E+00  8.909E+00  6.682E-02  1.864E+00
   1    3    7     3     3    1.4684E+00  1.9718E-01   1.2712E+00  0.000E+00  0.000E+00  0.000E+00  1.06987E+03  1.555E+00  8.218E+00  5.547E-02  1.777E+00
   1    4    8     3     4    1.2712E+00  2.2567E-01   1.0456E+00  0.000E+00  0.000E+00  0.000E+00  1.06682E+03  1.364E+00  7.455E+00  6.709E-02  1.682E+00
   1    5    8     3     5    1.0456E+00  1.5790E-01   8.8768E-01  0.000E+00  0.000E+00  0.000E+00  1.06362E+03  1.164E+00  6.655E+00  4.991E-02  1.582E+00
   1    6    8     3     6    8.8768E-01  5.5980E-02   8.3170E-01  0.000E+00  0.000E+00  0.000E+00  1.06158E+03  1.036E+00  6.145E+00  1.844E-02  1.518E+00
   1    5   10     4     1    1.0000E+01  9.0919E-02   9.9091E+00  0.000E+00  0.000E+00  0.000E+00  1.07836E+03  6.368E-01  1.000E+01  2.500E-02  1.212E+00
   1    5    9     4     2    9.9091E+00  1.8158E-01   9.7275E+00  0.000E+00  0.000E+00  0.000E+00  1.07154E+03  6.315E-01  1.000E+01  5.000E-02  1.211E+00
   1    6    8     4     3    9.7275E+00  1.2689E-01   9.6006E+00  0.000E+00  0.000E+00  0.000E+00  1.06381E+03  6.256E-01  1.000E+01  3.500E-02  1.209E+00
   1    6    8     5     1    1.0432E+01  2.2686E-01   1.0205E+01  0.000E+00  0.000E+00  0.000E+00  1.05868E+03  6.790E-01  1.542E+01  6.166E-02  1.226E+00
   1    7    7     5     2    1.0205E+01  2.7894E-01   9.9265E+00  0.000E+00  0.000E+00  0.000E+00  1.05417E+03  6.732E-01  1.519E+01  7.594E-02  1.224E+00
   1    8    7     5     3    9.9265E+00  1.9221E-01   9.7343E+00  0.000E+00  0.000E+00  0.000E+00  1.04992E+03  6.676E-01  1.497E+01  5.241E-02  1.223E+00
   1    8    6     5     4    9.7343E+00  1.3577E-01   9.5985E+00  0.000E+00  0.000E+00  0.000E+00  1.04691E+03  6.637E-01  1.482E+01  3.706E-02  1.221E+00
   1    9    6     6     1    5.2033E+01  2.9359E-01   5.1739E+01  0.000E+00  0.000E+00  0.000E+00  1.04462E+03  1.893E+00  1.200E+01  6.000E-02  1.631E+00
   1   10    7     6     2    5.1739E+01  2.9321E-01   5.1446E+01  0.000E+00  0.000E+00  0.000E+00  1.04007E+03  1.887E+00  1.200E+01  6.000E-02  1.629E+00
   1   11    7     6     3    5.1446E+01  2.9282E-01   5.1153E+01  0.000E+00  0.000E+00  0.000E+00  1.03552E+03  1.880E+00  1.200E+01  6.000E-02  1.627E+00
   1   12    7     6     4    5.1153E+01  2.9243E-01   5.0861E+01  0.000E+00  0.000E+00  0.000E+00  1.03096E+03  1.874E+00  1.200E+01  6.000E-02  1.625E+00
   1   13    7     6     5    5.0861E+01  1.4846E-02   5.0846E+01  0.000E+00  0.000E+00  0.000E+00  1.02778E+03  1.870E+00  1.200E+01  2.400E-02  2.062E-01
   1   14    9     7     1    1.5000E+02  1.3359E+00   1.4866E+02  0.000E+00  0.000E+00  0.000E+00  1.03987E+03  2.288E+00  5.529E+01  5.593E-01  7.962E-01
   1   13    8     7     2    1.4866E+02  1.8197E+00   1.4684E+02  0.000E+00  0.000E+00  0.000E+00  1.03478E+03  2.279E+00  5.526E+01  6.148E-01  9.866E-01
   1   13    7     7     3    1.4684E+02  1.4124E+00   1.4543E+02  0.000E+00  0.000E+00  0.000E+00  1.02969E+03  2.271E+00  5.522E+01  5.585E-01  8.430E-01
   1   13    6     8     1    1.9628E+02  9.6079E-01   1.9532E+02  0.000E+00  0.000E+00  0.000E+00  1.02499E+03  3.113E+00  4.514E+01  4.600E-01  6.962E-01
   1   13    5     8     2    1.9532E+02  1.6954E-01   1.9515E+02  0.000E+00  0.000E+00  0.000E+00  1.01873E+03  3.110E+00  4.509E+01  4.595E-01  1.230E-01
   1   13    4     8     3    1.9515E+02 -2.3937E+00   1.9754E+02  0.000E+00  0.000E+00  0.000E+00  1.01249E+03  3.116E+00  4.519E+01  4.605E+00 -1.733E-01
   1   13    3     8     4    1.9754E+02 -3.5174E+00   2.0106E+02  0.000E+00  0.000E+00  0.000E+00  1.00626E+03  3.134E+00  4.544E+01  4.631E+00 -2.532E-01
   1   13    2     8     5    2.0106E+02 -2.5310E+00   2.0359E+02  0.000E+00  0.000E+00  0.000E+00  1.00003E+03  3.152E+00  4.570E+01  4.657E+00 -1.812E-01
   1   13    1     8     6    2.0359E+02 -1.9829E+00   2.0557E+02  0.000E+00  0.000E+00  0.000E+00  9.95040E+02  3.165E+00  4.589E+01  2.806E+00 -2.356E-01
   1    8    6     9     1    1.4297E+01  0.0000E+00   1.4297E+01  0.000E+00  0.000E+00  0.000E+00  1.08155E+03  2.804E+00  4.000E+00  0.000E+00  1.935E+00
   1    8    5     9     2    1.4297E+01  0.0000E+00   1.4297E+01  0.000E+00  0.000E+00  0.000E+00  1.08105E+03  2.804E+00  4.000E+00  0.000E+00  1.935E+00



 UBDSV3 SAVING "           GW ET" ON UNIT  61 AT TIME STEP 15, STRESS PERIOD   7
 UBDSV3 SAVING "    UZF RECHARGE" ON UNIT  61 AT TIME STEP 15, STRESS PERIOD   7
 UBDSV3 SAVING " SURFACE LEAKAGE" ON UNIT  61 AT TIME STEP 15, STRESS PERIOD   7
 UBDSV3 SAVING "       HORT+DUNN" ON UNIT  61 AT TIME STEP 15, STRESS PERIOD   7
 UBDSV3 SAVING "  STORAGE CHANGE" ON UNIT  61 AT TIME STEP 15, STRESS PERIOD   7


UNSATURATED ZONE PACKAGE VOLUMETRIC BUDGET FOR  TIME STEP    15 STRESS PERIOD    7
  ------------------------------------------------------------------------------



     CUMULATIVE VOLUMES      L**3       RATES FOR THIS TIME STEP      L**3/T
     ------------------                 ------------------------

           IN:                                      IN:
           ---                                      ---
        INFILTRATION =   121301832.6975          INFILTRATION =          18.7049

          OUT:                                     OUT:
          ----                                     ----
              UZF ET =   101323632.7036                UZF ET =          26.5788
        UZF RECHARGE =       73224.0000          UZF RECHARGE =       0.0000E+00

            IN - OUT =    19904975.9939              IN - OUT =          -7.8739

          STORAGE:                                 STORAGE:
          --------                                 --------
      STORAGE CHANGE =    19904974.9788        STORAGE CHANGE =          -7.8739

 PERCENT DISCREPANCY IS DIFFERENCE BETWEEN IN-OUT MINUS CHANGE IN STORAGE
 DIVIDED BY THE AVERAGE OF IN AND OUT TIMES 100

 PERCENT DISCREPANCY =           0.00     PERCENT DISCREPANCY =           0.00






 

            AG WELLS      PERIOD    7   STEP  15
 AG WELL      1   LAYER   1   ROW     6   COL     4   RATE   -6.287257E-03
 AG WELL      2   LAYER   1   ROW     6   COL     5   RATE   -6.287257E-03
 AG WELL      3   LAYER   1   ROW     7   COL     4   RATE   -6.287257E-03
 AG WELL      4   LAYER   1   ROW     7   COL     5   RATE   -6.287257E-03
 AG WELL      5   LAYER   1   ROW     8   COL     4   RATE   -6.287257E-03
 AG WELL      6   LAYER   1   ROW     8   COL     5   RATE   -6.287257E-03
 
 

   DIVERSION SEGMENTS     PERIOD    7   STEP  15
 SEGMENT      9   RATE     14.2971    
 
 

        SW IRRIGATION     PERIOD    7   STEP  15
 SEGMENT      9   ROW     6   COL     4   RATE     2.37661    
 SEGMENT      9   ROW     6   COL     5   RATE     2.37661    
 SEGMENT      9   ROW     7   COL     4   RATE     2.37661    
 SEGMENT      9   ROW     7   COL     5   RATE     2.37661    
 SEGMENT      9   ROW     8   COL     4   RATE     2.37661    
 SEGMENT      9   ROW     8   COL     5   RATE     2.37661    
 
 

        GW IRRIGATION     PERIOD    7   STEP  15
 AG WELL      1   ROW     6   COL     4   RATE    6.287257E-03
 AG WELL      2   ROW     6   COL     5   RATE    6.287257E-03
 AG WELL      3   ROW     7   COL     4   RATE    6.287257E-03
 AG WELL      4   ROW     7   COL     5   RATE    6.287257E-03
 AG WELL      5   ROW     8   COL     4   RATE    6.287257E-03
 AG WELL      6   ROW     8   COL     5   RATE    6.287257E-03
 
1
  VOLUMETRIC BUDGET FOR AGRICULTURAL FIELDS AT  END OF TIME STEP   15, STRESS PERIOD   7
  ------------------------------------------------------------------------------

     CUMULATIVE VOLUMES      L**3       RATES FOR THIS TIME STEP      L**3/T
     ------------------                 ------------------------

           IN:                                      IN:
           ---                                      ---
               AG WELLS  =       43549.4102                 AG WELLS  =       3.7724E-02
      DIVERSION SEGMENTS =    57472976.0000        DIVERSION SEGMENTS =          14.2971
           GW IRRIGATION =           0.0000             GW IRRIGATION =           0.0000
           SW IRRIGATION =           0.0000             SW IRRIGATION =           0.0000
        SYSTEM LOSSES GW =           0.0000          SYSTEM LOSSES GW =           0.0000
        SYSTEM LOSSES SW =           0.0000          SYSTEM LOSSES SW =           0.0000

                TOTAL IN =    57516524.0000                  TOTAL IN =          14.3348

          OUT:                                     OUT:
          ----                                     ----
               AG WELLS  =           0.0000                 AG WELLS  =           0.0000
      DIVERSION SEGMENTS =           0.0000        DIVERSION SEGMENTS =           0.0000
           GW IRRIGATION =       43549.4102             GW IRRIGATION =       3.7724E-02
           SW IRRIGATION =    57474120.0000             SW IRRIGATION =          14.2974
        SYSTEM LOSSES GW =           0.0000          SYSTEM LOSSES GW =           0.0000
        SYSTEM LOSSES SW =           0.0000          SYSTEM LOSSES SW =           0.0000

               TOTAL OUT =    57517668.0000                 TOTAL OUT =          14.3351

                IN - OUT =       -1144.0000                  IN - OUT =      -2.8515E-04

     PERCENT DISCREPANCY =          -0.00         PERCENT DISCREPANCY =          -0.00



1
  VOLUMETRIC BUDGET FOR ENTIRE MODEL AT END OF TIME STEP   15, STRESS PERIOD   7
  ------------------------------------------------------------------------------

     CUMULATIVE VOLUMES      L**3       RATES FOR THIS TIME STEP      L**3/T
     ------------------                 ------------------------

           IN:                                      IN:
           ---                                      ---
             STORAGE     =    11139512.0000               STORAGE     =           0.3577
       CONSTANT HEAD     =           0.0000         CONSTANT HEAD     =           0.0000
     HEAD DEP BOUNDS     =     4157568.7500       HEAD DEP BOUNDS     =           0.2858
      STREAM LEAKAGE     =   177753680.0000        STREAM LEAKAGE     =          12.8053
        UZF RECHARGE     =       73223.9531          UZF RECHARGE     =           0.0000
               GW ET     =           0.0000                 GW ET     =           0.0000
     SURFACE LEAKAGE     =           0.0000       SURFACE LEAKAGE     =           0.0000
           AG WELLS      =           0.0000             AG WELLS      =           0.0000

                TOTAL IN =   193123984.0000                  TOTAL IN =          13.4487

          OUT:                                     OUT:
          ----                                     ----
             STORAGE     =    34692076.0000               STORAGE     =           2.4725
       CONSTANT HEAD     =           0.0000         CONSTANT HEAD     =           0.0000
     HEAD DEP BOUNDS     =     4246458.0000       HEAD DEP BOUNDS     =           0.2944
      STREAM LEAKAGE     =   152859088.0000        STREAM LEAKAGE     =          10.4250
        UZF RECHARGE     =           0.0000          UZF RECHARGE     =           0.0000
               GW ET     =     1286008.7500                 GW ET     =           0.2187
     SURFACE LEAKAGE     =           0.0000       SURFACE LEAKAGE     =           0.0000
           AG WELLS      =       43549.4102             AG WELLS      =       3.7724E-02

               TOTAL OUT =   193127200.0000                 TOTAL OUT =          13.4483

                IN - OUT =       -3216.0000                  IN - OUT =       4.5300E-04

     PERCENT DISCREPANCY =          -0.00         PERCENT DISCREPANCY =           0.00






         TIME SUMMARY AT END OF TIME STEP   15 IN STRESS PERIOD    7
                    SECONDS     MINUTES      HOURS       DAYS        YEARS
                    -----------------------------------------------------------
   TIME STEP LENGTH  87667.      1461.1      24.352      1.0147     2.77799E-03
 STRESS PERIOD TIME 1.31500E+06  21917.      365.28      15.220     4.16698E-02
         TOTAL TIME 1.45514E+07 2.42524E+05  4042.1      168.42     0.46111    
1
 
 SOLVING FOR HEAD 
                                                   Max.-Head-Change                         Max.-Flux-Residual
  Residual-Control   Outer-Iter.   Inner-Iter.     Column Row Layer    Maximum-Head-Change  Column Row Layer    Maximum-Flux-Residual          L2-NORM 
          0                 1           2             4   13     1       0.6792000443E-02       4   13    1         0.4372153010E+00      0.8486366993E+00
          0                 2           2             4    7     1      -0.3796093281E-01       5    6    1        -0.2040204672E+01      0.5025110635E+01
          0                 3           2             4    7     1       0.3948916144E-01       5    6    1         0.2180268816E+01      0.5357800371E+01
          0                 4           2             4    7     1      -0.1571527185E-02       4    6    1        -0.9001039336E-01      0.2207226518E+00
          0                 5           1             4    7     1       0.1937757034E-04       4    6    1         0.1140815273E-02      0.2993681753E-02

    ------------------------------------------------
       NWT REQUIRED            5 OUTER ITERATIONS 
       AND A TOTAL OF          9 INNER ITERATIONS.
    ------------------------------------------------

 NO OUTPUT CONTROL FOR STRESS PERIOD    7   TIME STEP   16
 
 SOLVING FOR HEAD 
                                                   Max.-Head-Change                         Max.-Flux-Residual
  Residual-Control   Outer-Iter.   Inner-Iter.     Column Row Layer    Maximum-Head-Change  Column Row Layer    Maximum-Flux-Residual          L2-NORM 
          0                 1           2             4   13     1       0.7114185395E-02       4   13    1         0.4579787591E+00      0.8746638762E+00
          0                 2           2             4    7     1      -0.3827041002E-01       5    6    1        -0.2056809144E+01      0.5066349611E+01
          0                 3           2             4    7     1       0.3981106403E-01       5    6    1         0.2198039599E+01      0.5401476720E+01
          0                 4           2             4    7     1      -0.1584338843E-02       4    6    1        -0.9074796857E-01      0.2225236504E+00
          0                 5           1             4    7     1       0.1953554307E-04       4    6    1         0.1150164520E-02      0.3018087430E-02

    ------------------------------------------------
       NWT REQUIRED            5 OUTER ITERATIONS 
       AND A TOTAL OF          9 INNER ITERATIONS.
    ------------------------------------------------

 NO OUTPUT CONTROL FOR STRESS PERIOD    7   TIME STEP   17
 
 SOLVING FOR HEAD 
                                                   Max.-Head-Change                         Max.-Flux-Residual
  Residual-Control   Outer-Iter.   Inner-Iter.     Column Row Layer    Maximum-Head-Change  Column Row Layer    Maximum-Flux-Residual          L2-NORM 
          0                 1           2             4   13     1       0.7388028942E-02       4   13    1         0.4756217500E+00      0.8978990643E+00
          0                 2           2             4    7     1      -0.3495130610E-01       5    6    1        -0.1878529732E+01      0.4628111775E+01
          0                 3           2             4    7     1       0.3635597750E-01       5    6    1         0.2007284400E+01      0.4932783355E+01
          0                 4           2             4    7     1      -0.1446855818E-02       4    6    1        -0.8295670880E-01      0.2032501518E+00
          0                 5           1             4    7     1       0.1784032466E-04       4    6    1         0.1051439048E-02      0.2756517840E-02

    ------------------------------------------------
       NWT REQUIRED            5 OUTER ITERATIONS 
       AND A TOTAL OF          9 INNER ITERATIONS.
    ------------------------------------------------

 NO OUTPUT CONTROL FOR STRESS PERIOD    7   TIME STEP   18
 
 SOLVING FOR HEAD 
                                                   Max.-Head-Change                         Max.-Flux-Residual
  Residual-Control   Outer-Iter.   Inner-Iter.     Column Row Layer    Maximum-Head-Change  Column Row Layer    Maximum-Flux-Residual          L2-NORM 
          0                 1           2             4   13     1       0.7469106878E-02       4   13    1         0.4808213955E+00      0.9079110161E+00
          0                 2           2             4    7     1      -0.3522880683E-01       5    6    1        -0.1893418066E+01      0.4664909602E+01
          0                 3           2             4    7     1       0.3664460773E-01       5    6    1         0.2023218322E+01      0.4971944870E+01
          0                 4           2             4    7     1      -0.1458343455E-02       4    6    1        -0.8361910917E-01      0.2048656163E+00
          0                 5           1             4    7     1       0.1798197168E-04       4    6    1         0.1059835703E-02      0.2778985556E-02

    ------------------------------------------------
       NWT REQUIRED            5 OUTER ITERATIONS 
       AND A TOTAL OF          9 INNER ITERATIONS.
    ------------------------------------------------

 NO OUTPUT CONTROL FOR STRESS PERIOD    7   TIME STEP   19
 
 SOLVING FOR HEAD 
                                                   Max.-Head-Change                         Max.-Flux-Residual
  Residual-Control   Outer-Iter.   Inner-Iter.     Column Row Layer    Maximum-Head-Change  Column Row Layer    Maximum-Flux-Residual          L2-NORM 
          0                 1           2             4   13     1       0.7546877993E-02       4   13    1         0.4858102347E+00      0.9174999756E+00
          0                 2           2             4    7     1      -0.3525615600E-01       5    6    1        -0.1894871782E+01      0.4668650756E+01
          0                 3           2             4    7     1       0.3667286030E-01       5    6    1         0.2024776938E+01      0.4975783900E+01
          0                 4           2             4    7     1      -0.1459470107E-02       4    6    1        -0.8369354372E-01      0.2050278968E+00
          0                 5           1             4    7     1       0.1799586376E-04       4    6    1         0.1060781808E-02      0.2780800444E-02

    ------------------------------------------------
       NWT REQUIRED            5 OUTER ITERATIONS 
       AND A TOTAL OF          9 INNER ITERATIONS.
    ------------------------------------------------

 NO OUTPUT CONTROL FOR STRESS PERIOD    7   TIME STEP   20
 
 SOLVING FOR HEAD 
                                                   Max.-Head-Change                         Max.-Flux-Residual
  Residual-Control   Outer-Iter.   Inner-Iter.     Column Row Layer    Maximum-Head-Change  Column Row Layer    Maximum-Flux-Residual          L2-NORM 
          0                 1           2             4   13     1       0.7611266420E-02       4   13    1         0.4899374477E+00      0.9259664660E+00
          0                 2           2             4    7     1      -0.3531385223E-01       5    6    1        -0.1897955959E+01      0.4676385044E+01
          0                 3           2             4    7     1       0.3673270661E-01       5    6    1         0.2028079873E+01      0.4983908672E+01
          0                 4           2             4    7     1      -0.1461853938E-02       4    6    1        -0.8383930849E-01      0.2053662589E+00
          0                 5           1             4    7     1       0.1802525712E-04       4    6    1         0.1062631804E-02      0.2785037765E-02

    ------------------------------------------------
       NWT REQUIRED            5 OUTER ITERATIONS 
       AND A TOTAL OF          9 INNER ITERATIONS.
    ------------------------------------------------

 NO OUTPUT CONTROL FOR STRESS PERIOD    7   TIME STEP   21
 
 SOLVING FOR HEAD 
                                                   Max.-Head-Change                         Max.-Flux-Residual
  Residual-Control   Outer-Iter.   Inner-Iter.     Column Row Layer    Maximum-Head-Change  Column Row Layer    Maximum-Flux-Residual          L2-NORM 
          0                 1           2             4   13     1       0.7666057142E-02       4   13    1         0.4934470319E+00      0.9335680317E+00
          0                 2           2             4    7     1      -0.3525723296E-01       5    6    1        -0.1894900981E+01      0.4669003979E+01
          0                 3           2             4    7     1       0.3667356684E-01       5    6    1         0.2024813672E+01      0.4975891986E+01
          0                 4           2             4    7     1      -0.1459503053E-02       4    6    1        -0.8371636084E-01      0.2050411191E+00
          0                 5           1             4    7     1       0.1799626970E-04       4    6    1         0.1061076721E-02      0.2783217291E-02

    ------------------------------------------------
       NWT REQUIRED            5 OUTER ITERATIONS 
       AND A TOTAL OF          9 INNER ITERATIONS.
    ------------------------------------------------

 NO OUTPUT CONTROL FOR STRESS PERIOD    7   TIME STEP   22
 
 SOLVING FOR HEAD 
                                                   Max.-Head-Change                         Max.-Flux-Residual
  Residual-Control   Outer-Iter.   Inner-Iter.     Column Row Layer    Maximum-Head-Change  Column Row Layer    Maximum-Flux-Residual          L2-NORM 
          0                 1           2             4   13     1       0.7708367312E-02       4   13    1         0.4961530855E+00      0.9400822706E+00
          0                 2           2             4    7     1      -0.3532867104E-01       5    6    1        -0.1898724269E+01      0.4678527096E+01
          0                 3           2             4    7     1       0.3674772739E-01       5    6    1         0.2028906966E+01      0.4985958329E+01
          0                 4           2             4    7     1      -0.1462456466E-02       4    6    1        -0.8389439184E-01      0.2054597471E+00
          0                 5           1             4    7     1       0.1803268639E-04       4    6    1         0.1063335570E-02      0.2786833862E-02

    ------------------------------------------------
       NWT REQUIRED            5 OUTER ITERATIONS 
       AND A TOTAL OF          9 INNER ITERATIONS.
    ------------------------------------------------

 NO OUTPUT CONTROL FOR STRESS PERIOD    7   TIME STEP   23
 
 SOLVING FOR HEAD 
                                                   Max.-Head-Change                         Max.-Flux-Residual
  Residual-Control   Outer-Iter.   Inner-Iter.     Column Row Layer    Maximum-Head-Change  Column Row Layer    Maximum-Flux-Residual          L2-NORM 
          0                 1           2             4   13     1       0.7745873668E-02       4   13    1         0.4985506964E+00      0.9460626120E+00
          0                 2           2             4    7     1      -0.3536072251E-01       5    6    1        -0.1900432642E+01      0.4682838984E+01
          0                 3           2             4    7     1       0.3678089493E-01       5    6    1         0.2030737085E+01      0.4990463443E+01
          0                 4           2             4    7     1      -0.1463778675E-02       4    6    1        -0.8397984208E-01      0.2056491521E+00
          0                 5           1             4    7     1       0.1804898970E-04       4    6    1         0.1064421258E-02      0.2789259611E-02

    ------------------------------------------------
       NWT REQUIRED            5 OUTER ITERATIONS 
       AND A TOTAL OF          9 INNER ITERATIONS.
    ------------------------------------------------

 NO OUTPUT CONTROL FOR STRESS PERIOD    7   TIME STEP   24
 
 SOLVING FOR HEAD 
                                                   Max.-Head-Change                         Max.-Flux-Residual
  Residual-Control   Outer-Iter.   Inner-Iter.     Column Row Layer    Maximum-Head-Change  Column Row Layer    Maximum-Flux-Residual          L2-NORM 
          0                 1           2             4   13     1       0.7777799534E-02       4   13    1         0.5005895675E+00      0.9514539843E+00
          0                 2           2             4    7     1      -0.3539780101E-01       5    6    1        -0.1902411509E+01      0.4687807113E+01
          0                 3           2             4    7     1       0.3681929972E-01       5    6    1         0.2032856387E+01      0.4995678994E+01
          0                 4           2             4    7     1      -0.1465309284E-02       4    6    1        -0.8407710094E-01      0.2058681306E+00
          0                 5           1             4    7     1       0.1806786286E-04       4    6    1         0.1065656581E-02      0.2792476781E-02

    ------------------------------------------------
       NWT REQUIRED            5 OUTER ITERATIONS 
       AND A TOTAL OF          9 INNER ITERATIONS.
    ------------------------------------------------

 NO OUTPUT CONTROL FOR STRESS PERIOD    7   TIME STEP   25
 
 SOLVING FOR HEAD 
                                                   Max.-Head-Change                         Max.-Flux-Residual
  Residual-Control   Outer-Iter.   Inner-Iter.     Column Row Layer    Maximum-Head-Change  Column Row Layer    Maximum-Flux-Residual          L2-NORM 
          0                 1           2             4   13     1       0.7805508961E-02       4   13    1         0.5023577849E+00      0.9563531731E+00
          0                 2           2             4    7     1      -0.3543206015E-01       5    6    1        -0.1904237747E+01      0.4692393559E+01
          0                 3           2             4    7     1       0.3685477463E-01       5    6    1         0.2034813847E+01      0.5000496899E+01
          0                 4           2             4    7     1      -0.1466723299E-02       4    6    1        -0.8416771393E-01      0.2060707198E+00
          0                 5           1             4    7     1       0.1808529819E-04       4    6    1         0.1066807659E-02      0.2795776672E-02

    ------------------------------------------------
       NWT REQUIRED            5 OUTER ITERATIONS 
       AND A TOTAL OF          9 INNER ITERATIONS.
    ------------------------------------------------

 NO OUTPUT CONTROL FOR STRESS PERIOD    7   TIME STEP   26
 
 SOLVING FOR HEAD 
                                                   Max.-Head-Change                         Max.-Flux-Residual
  Residual-Control   Outer-Iter.   Inner-Iter.     Column Row Layer    Maximum-Head-Change  Column Row Layer    Maximum-Flux-Residual          L2-NORM 
          0                 1           2             4   13     1       0.7829613834E-02       4   13    1         0.5038946699E+00      0.9608215646E+00
          0                 2           2             4    7     1      -0.5761098623E-02       5    6    1        -0.3106525493E+00      0.7758413904E+00
          0                 3           2             4    7     1      -0.5134731938E-02       4    8    1        -0.2758010187E+00      0.6783187566E+00
          0                 4           2             4    7     1       0.5847490958E-02       4    8    1         0.3228365004E+00      0.8027819763E+00
          0                 5           2             4    7     1       0.2591607325E-02       4    7    1         0.1430795646E+00      0.3558316972E+00
          0                 6           2             4    7     1      -0.1406475071E-02       5    8    1        -0.7981396334E-01      0.1977865338E+00
          0                 7           2             4    7     1      -0.2425929874E-02       4    7    1        -0.1376642240E+00      0.3408003732E+00
          0                 8           2             4    7     1       0.4489398625E-02       5    6    1         0.2618391417E+00      0.6463829895E+00
          0                 9           2             4    7     1       0.1279898803E-02       4    7    1         0.7464826495E-01      0.1836811227E+00
          0                10           2             4    7     1       0.3458029876E-03       4    7    1         0.2016826043E-01      0.4967298837E-01
          0                11           1             4    7     1       0.3869668924E-04       4    7    1         0.2256898246E-02      0.5745664994E-02

    ------------------------------------------------
       NWT REQUIRED           11 OUTER ITERATIONS 
       AND A TOTAL OF         21 INNER ITERATIONS.
    ------------------------------------------------

 NO OUTPUT CONTROL FOR STRESS PERIOD    7   TIME STEP   27
 
 SOLVING FOR HEAD 
                                                   Max.-Head-Change                         Max.-Flux-Residual
  Residual-Control   Outer-Iter.   Inner-Iter.     Column Row Layer    Maximum-Head-Change  Column Row Layer    Maximum-Flux-Residual          L2-NORM 
          0                 1           2             2   13     1       0.7340758990E-02       4   13    1         0.4687053878E+00      0.9249905274E+00
          0                 2           2             4    7     1      -0.4208853284E-01       5    6    1        -0.2261736088E+01      0.5571505212E+01
          0                 3           2             4    7     1       0.4378308376E-01       5    6    1         0.2417322101E+01      0.5940359075E+01
          0                 4           2             4    7     1      -0.1742420335E-02       4    6    1        -0.9982988876E-01      0.2447348741E+00
          0                 5           1             4    7     1       0.2148474751E-04       4    6    1         0.1265278502E-02      0.3319406854E-02

    ------------------------------------------------
       NWT REQUIRED            5 OUTER ITERATIONS 
       AND A TOTAL OF          9 INNER ITERATIONS.
    ------------------------------------------------

 NO OUTPUT CONTROL FOR STRESS PERIOD    7   TIME STEP   28
 
 SOLVING FOR HEAD 
                                                   Max.-Head-Change                         Max.-Flux-Residual
  Residual-Control   Outer-Iter.   Inner-Iter.     Column Row Layer    Maximum-Head-Change  Column Row Layer    Maximum-Flux-Residual          L2-NORM 
          0                 1           2             4   13     1       0.7690780971E-02       4   13    1         0.4949047562E+00      0.9547856470E+00
          0                 2           2             4    7     1      -0.3425998542E-01       5    6    1        -0.1841265548E+01      0.4537513454E+01
          0                 3           2             4    7     1       0.3563413419E-01       5    6    1         0.1967420871E+01      0.4834917351E+01
          0                 4           2             4    7     1      -0.1418157762E-02       4    6    1        -0.8143927762E-01      0.1992711531E+00
          0                 5           1             4    7     1       0.1748646621E-04       4    6    1         0.1032241417E-02      0.2703126795E-02

    ------------------------------------------------
       NWT REQUIRED            5 OUTER ITERATIONS 
       AND A TOTAL OF          9 INNER ITERATIONS.
    ------------------------------------------------

 NO OUTPUT CONTROL FOR STRESS PERIOD    7   TIME STEP   29
 
 SOLVING FOR HEAD 
                                                   Max.-Head-Change                         Max.-Flux-Residual
  Residual-Control   Outer-Iter.   Inner-Iter.     Column Row Layer    Maximum-Head-Change  Column Row Layer    Maximum-Flux-Residual          L2-NORM 
          0                 1           2             4   13     1       0.6129436063E-02       4   13    1         0.3942283275E+00      0.7908157912E+00
          0                 2           2             4    7     1      -0.3485814635E-01       5    6    1        -0.1873380354E+01      0.4614403175E+01
          0                 3           2             4    7     1       0.3625659121E-01       5    6    1         0.2001785549E+01      0.4919260286E+01
          0                 4           2             4    7     1      -0.1442929035E-02       4    6    1        -0.8285533813E-01      0.2027395264E+00
          0                 5           1             4    7     1       0.1779190557E-04       4    6    1         0.1050188154E-02      0.2749604249E-02

    ------------------------------------------------
       NWT REQUIRED            5 OUTER ITERATIONS 
       AND A TOTAL OF          9 INNER ITERATIONS.
    ------------------------------------------------

 NO OUTPUT CONTROL FOR STRESS PERIOD    7   TIME STEP   30



 STREAM LISTING     PERIOD      7   STEP       30

 LAYER ROW COL. STREAM  RCH.  FLOW INTO     FLOW TO   FLOW OUT OF   OVRLND.     DIRECT     STREAM       STREAM     STREAM     STREAM   STREAMBED  STREAMBED
                SEG.NO.  NO.  STRM. RCH.    AQUIFER    STRM. RCH.    RUNOFF     PRECIP       ET          HEAD       DEPTH      WIDTH   CONDCTNC.   GRADIENT

   1    1    1     1     1    5.7704E+01  3.6391E-01   5.7340E+01  0.000E+00  0.000E+00  0.000E+00  1.09454E+03  1.497E+00  1.798E+01  8.092E-02  1.499E+00
   1    2    2     1     2    5.7340E+01  5.6353E-01   5.6777E+01  0.000E+00  0.000E+00  0.000E+00  1.08955E+03  1.491E+00  1.792E+01  1.255E-01  1.497E+00
   1    3    3     1     3    5.6777E+01  4.8055E-01   5.6296E+01  0.000E+00  0.000E+00  0.000E+00  1.08390E+03  1.485E+00  1.786E+01  1.071E-01  1.495E+00
   1    3    4     1     4    5.6296E+01  4.4247E-01   5.5854E+01  0.000E+00  0.000E+00  0.000E+00  1.07889E+03  1.479E+00  1.780E+01  9.879E-02  1.493E+00
   1    4    5     2     1    5.3854E+01  3.8295E-01   5.3471E+01  0.000E+00  0.000E+00  0.000E+00  1.07384E+03  1.910E+00  1.200E+01  7.800E-02  1.637E+00
   1    5    6     2     2    5.3471E+01  2.9414E-01   5.3177E+01  0.000E+00  0.000E+00  0.000E+00  1.06841E+03  1.902E+00  1.200E+01  6.000E-02  1.634E+00
   1    6    6     2     3    5.3177E+01  2.9376E-01   5.2883E+01  0.000E+00  0.000E+00  0.000E+00  1.06369E+03  1.896E+00  1.200E+01  6.000E-02  1.632E+00
   1    7    6     2     4    5.2883E+01  2.9339E-01   5.2590E+01  0.000E+00  0.000E+00  0.000E+00  1.05897E+03  1.890E+00  1.200E+01  6.000E-02  1.630E+00
   1    8    6     2     5    5.2590E+01  2.9301E-01   5.2297E+01  0.000E+00  0.000E+00  0.000E+00  1.05424E+03  1.883E+00  1.200E+01  6.000E-02  1.628E+00
   1    3    5     3     1    2.0000E+00  2.8252E-01   1.7175E+00  0.000E+00  0.000E+00  0.000E+00  1.07555E+03  1.909E+00  9.636E+00  7.227E-02  1.955E+00
   1    3    6     3     2    1.7175E+00  2.4905E-01   1.4684E+00  0.000E+00  0.000E+00  0.000E+00  1.07264E+03  1.727E+00  8.909E+00  6.682E-02  1.864E+00
   1    3    7     3     3    1.4684E+00  1.9718E-01   1.2712E+00  0.000E+00  0.000E+00  0.000E+00  1.06987E+03  1.555E+00  8.218E+00  5.547E-02  1.777E+00
   1    4    8     3     4    1.2712E+00  2.2567E-01   1.0456E+00  0.000E+00  0.000E+00  0.000E+00  1.06682E+03  1.364E+00  7.455E+00  6.709E-02  1.682E+00
   1    5    8     3     5    1.0456E+00  1.5790E-01   8.8768E-01  0.000E+00  0.000E+00  0.000E+00  1.06362E+03  1.164E+00  6.655E+00  4.991E-02  1.582E+00
   1    6    8     3     6    8.8768E-01  5.5980E-02   8.3170E-01  0.000E+00  0.000E+00  0.000E+00  1.06158E+03  1.036E+00  6.145E+00  1.844E-02  1.518E+00
   1    5   10     4     1    1.0000E+01  9.0919E-02   9.9091E+00  0.000E+00  0.000E+00  0.000E+00  1.07836E+03  6.368E-01  1.000E+01  2.500E-02  1.212E+00
   1    5    9     4     2    9.9091E+00  1.8158E-01   9.7275E+00  0.000E+00  0.000E+00  0.000E+00  1.07154E+03  6.315E-01  1.000E+01  5.000E-02  1.211E+00
   1    6    8     4     3    9.7275E+00  1.2689E-01   9.6006E+00  0.000E+00  0.000E+00  0.000E+00  1.06381E+03  6.256E-01  1.000E+01  3.500E-02  1.209E+00
   1    6    8     5     1    1.0432E+01  2.2686E-01   1.0205E+01  0.000E+00  0.000E+00  0.000E+00  1.05868E+03  6.790E-01  1.542E+01  6.166E-02  1.226E+00
   1    7    7     5     2    1.0205E+01  2.7894E-01   9.9265E+00  0.000E+00  0.000E+00  0.000E+00  1.05417E+03  6.732E-01  1.519E+01  7.594E-02  1.224E+00
   1    8    7     5     3    9.9265E+00  1.9221E-01   9.7343E+00  0.000E+00  0.000E+00  0.000E+00  1.04992E+03  6.676E-01  1.497E+01  5.241E-02  1.223E+00
   1    8    6     5     4    9.7343E+00  1.3577E-01   9.5985E+00  0.000E+00  0.000E+00  0.000E+00  1.04691E+03  6.637E-01  1.482E+01  3.706E-02  1.221E+00
   1    9    6     6     1    3.9447E+01  2.7612E-01   3.9171E+01  0.000E+00  0.000E+00  0.000E+00  1.04433E+03  1.602E+00  1.200E+01  6.000E-02  1.534E+00
   1   10    7     6     2    3.9171E+01  2.7572E-01   3.8895E+01  0.000E+00  0.000E+00  0.000E+00  1.03978E+03  1.595E+00  1.200E+01  6.000E-02  1.532E+00
   1   11    7     6     3    3.8895E+01  2.7531E-01   3.8620E+01  0.000E+00  0.000E+00  0.000E+00  1.03522E+03  1.588E+00  1.200E+01  6.000E-02  1.529E+00
   1   12    7     6     4    3.8620E+01  2.7490E-01   3.8345E+01  0.000E+00  0.000E+00  0.000E+00  1.03067E+03  1.582E+00  1.200E+01  6.000E-02  1.527E+00
   1   13    7     6     5    3.8345E+01  7.7449E-03   3.8337E+01  0.000E+00  0.000E+00  0.000E+00  1.02749E+03  1.578E+00  1.200E+01  2.400E-02  1.076E-01
   1   14    9     7     1    1.5000E+02  1.3359E+00   1.4866E+02  0.000E+00  0.000E+00  0.000E+00  1.03987E+03  2.288E+00  5.529E+01  5.593E-01  7.962E-01
   1   13    8     7     2    1.4866E+02  1.8182E+00   1.4685E+02  0.000E+00  0.000E+00  0.000E+00  1.03478E+03  2.279E+00  5.526E+01  6.148E-01  9.858E-01
   1   13    7     7     3    1.4685E+02  1.4104E+00   1.4544E+02  0.000E+00  0.000E+00  0.000E+00  1.02969E+03  2.271E+00  5.522E+01  5.585E-01  8.418E-01
   1   13    6     8     1    1.8377E+02  9.0442E-01   1.8287E+02  0.000E+00  0.000E+00  0.000E+00  1.02491E+03  3.037E+00  4.404E+01  4.487E-01  6.718E-01
   1   13    5     8     2    1.8287E+02  1.3344E-01   1.8274E+02  0.000E+00  0.000E+00  0.000E+00  1.01866E+03  3.034E+00  4.399E+01  4.483E-01  9.923E-02
   1   13    4     8     3    1.8274E+02 -2.6459E+00   1.8538E+02  0.000E+00  0.000E+00  0.000E+00  1.01242E+03  3.041E+00  4.410E+01  4.494E+00 -1.963E-01
   1   13    3     8     4    1.8538E+02 -3.7345E+00   1.8912E+02  0.000E+00  0.000E+00  0.000E+00  1.00619E+03  3.061E+00  4.439E+01  4.523E+00 -2.752E-01
   1   13    2     8     5    1.8912E+02 -2.6931E+00   1.9181E+02  0.000E+00  0.000E+00  0.000E+00  9.99956E+02  3.081E+00  4.467E+01  4.552E+00 -1.972E-01
   1   13    1     8     6    1.9181E+02 -2.0708E+00   1.9388E+02  0.000E+00  0.000E+00  0.000E+00  9.94970E+02  3.095E+00  4.488E+01  2.744E+00 -2.515E-01
   1    8    6     9     1    2.2448E+01  0.0000E+00   2.2448E+01  0.000E+00  0.000E+00  0.000E+00  1.08243E+03  3.681E+00  4.000E+00  0.000E+00  2.227E+00
   1    8    5     9     2    2.2448E+01  0.0000E+00   2.2448E+01  0.000E+00  0.000E+00  0.000E+00  1.08193E+03  3.681E+00  4.000E+00  0.000E+00  2.227E+00





UNSATURATED ZONE PACKAGE VOLUMETRIC BUDGET FOR  TIME STEP    30 STRESS PERIOD    7
  ------------------------------------------------------------------------------



     CUMULATIVE VOLUMES      L**3       RATES FOR THIS TIME STEP      L**3/T
     ------------------                 ------------------------

           IN:                                      IN:
           ---                                      ---
        INFILTRATION =   156863271.2844          INFILTRATION =          26.8557

          OUT:                                     OUT:
          ----                                     ----
              UZF ET =   136324748.3374                UZF ET =          26.6236
        UZF RECHARGE =       73224.0000          UZF RECHARGE =       0.0000E+00

            IN - OUT =    20465298.9470              IN - OUT =           0.2321

          STORAGE:                                 STORAGE:
          --------                                 --------
      STORAGE CHANGE =    20465297.8487        STORAGE CHANGE =           0.2321

 PERCENT DISCREPANCY IS DIFFERENCE BETWEEN IN-OUT MINUS CHANGE IN STORAGE
 DIVIDED BY THE AVERAGE OF IN AND OUT TIMES 100

 PERCENT DISCREPANCY =           0.00     PERCENT DISCREPANCY =           0.00






1
  VOLUMETRIC BUDGET FOR AGRICULTURAL FIELDS AT  END OF TIME STEP   30, STRESS PERIOD   7
  ------------------------------------------------------------------------------

     CUMULATIVE VOLUMES      L**3       RATES FOR THIS TIME STEP      L**3/T
     ------------------                 ------------------------

           IN:                                      IN:
           ---                                      ---
               AG WELLS  =       46842.2930                 AG WELLS  =           0.0000
      DIVERSION SEGMENTS =    87237960.0000        DIVERSION SEGMENTS =          22.4478
           GW IRRIGATION =           0.0000             GW IRRIGATION =           0.0000
           SW IRRIGATION =           0.0000             SW IRRIGATION =           0.0000
        SYSTEM LOSSES GW =           0.0000          SYSTEM LOSSES GW =           0.0000
        SYSTEM LOSSES SW =           0.0000          SYSTEM LOSSES SW =           0.0000

                TOTAL IN =    87284800.0000                  TOTAL IN =          22.4478

          OUT:                                     OUT:
          ----                                     ----
               AG WELLS  =           0.0000                 AG WELLS  =           0.0000
      DIVERSION SEGMENTS =           0.0000        DIVERSION SEGMENTS =           0.0000
           GW IRRIGATION =       46842.2930             GW IRRIGATION =           0.0000
           SW IRRIGATION =    87239696.0000             SW IRRIGATION =          22.4482
        SYSTEM LOSSES GW =           0.0000          SYSTEM LOSSES GW =           0.0000
        SYSTEM LOSSES SW =           0.0000          SYSTEM LOSSES SW =           0.0000

               TOTAL OUT =    87286536.0000                 TOTAL OUT =          22.4482

                IN - OUT =       -1736.0000                  IN - OUT =      -4.4823E-04

     PERCENT DISCREPANCY =          -0.00         PERCENT DISCREPANCY =          -0.00



1
  VOLUMETRIC BUDGET FOR ENTIRE MODEL AT END OF TIME STEP   30, STRESS PERIOD   7
  ------------------------------------------------------------------------------

     CUMULATIVE VOLUMES      L**3       RATES FOR THIS TIME STEP      L**3/T
     ------------------                 ------------------------

           IN:                                      IN:
           ---                                      ---
             STORAGE     =    11940732.0000               STORAGE     =           0.7701
       CONSTANT HEAD     =           0.0000         CONSTANT HEAD     =           0.0000
     HEAD DEP BOUNDS     =     4533349.0000       HEAD DEP BOUNDS     =           0.2858
      STREAM LEAKAGE     =   194427936.0000        STREAM LEAKAGE     =          12.5213
        UZF RECHARGE     =       73223.9531          UZF RECHARGE     =           0.0000
               GW ET     =           0.0000                 GW ET     =           0.0000
     SURFACE LEAKAGE     =           0.0000       SURFACE LEAKAGE     =           0.0000
           AG WELLS      =           0.0000             AG WELLS      =           0.0000

                TOTAL IN =   210975232.0000                  TOTAL IN =          13.5771

          OUT:                                     OUT:
          ----                                     ----
             STORAGE     =    37575648.0000               STORAGE     =           2.0132
       CONSTANT HEAD     =           0.0000         CONSTANT HEAD     =           0.0000
     HEAD DEP BOUNDS     =     4632905.0000       HEAD DEP BOUNDS     =           0.2935
      STREAM LEAKAGE     =   167232672.0000        STREAM LEAKAGE     =          11.1443
        UZF RECHARGE     =           0.0000          UZF RECHARGE     =           0.0000
               GW ET     =     1490136.0000                 GW ET     =           0.1259
     SURFACE LEAKAGE     =           0.0000       SURFACE LEAKAGE     =           0.0000
           AG WELLS      =       46842.2930             AG WELLS      =           0.0000

               TOTAL OUT =   210978208.0000                 TOTAL OUT =          13.5770

                IN - OUT =       -2976.0000                  IN - OUT =       1.2589E-04

     PERCENT DISCREPANCY =          -0.00         PERCENT DISCREPANCY =           0.00






         TIME SUMMARY AT END OF TIME STEP   30 IN STRESS PERIOD    7
                    SECONDS     MINUTES      HOURS       DAYS        YEARS
                    -----------------------------------------------------------
   TIME STEP LENGTH  87667.      1461.1      24.352      1.0147     2.77799E-03
 STRESS PERIOD TIME 2.63000E+06  43833.      730.56      30.440     8.33397E-02
         TOTAL TIME 1.58664E+07 2.64440E+05  4407.3      183.64     0.50278    
1
1
                            STRESS PERIOD NO.    8, LENGTH =   2630000.    
                            -----------------------------------------------

                              NUMBER OF TIME STEPS =    30

                               MULTIPLIER FOR DELT =     1.000

                            INITIAL TIME STEP SIZE =   87666.66    

 REUSING NON-PARAMETER GHB CELLS FROM LAST STRESS PERIOD

      2 GHB CELLS

 REUSING STREAM SEGMENT DATA FROM LAST STRESS PERIOD



            AREAL INFILTRATION RATE
 READING ON UNIT   19 WITH FORMAT: (10F4.0)            

            1           2           3           4           5           6           7           8           9          10
 ........................................................................................................................
   1   1.2000E-09   0.000       0.000       0.000       0.000       0.000       0.000       0.000       0.000       0.000    
   2   2.1000E-09  2.0000E-09  8.0000E-10  8.5000E-09   0.000       0.000       0.000       0.000       0.000       0.000    
   3   5.0000E-10  1.1000E-09  8.8000E-09  5.5000E-09   0.000       0.000       0.000       0.000       0.000       0.000    
   4   8.5000E-09  1.1000E-09  1.1000E-09  1.1000E-09  2.0000E-09   0.000       0.000       0.000       0.000       0.000    
   5   8.5000E-09  1.1000E-09  1.1000E-09  1.1000E-09  1.1000E-09   0.000       0.000       0.000       0.000       0.000    
   6   8.5000E-09  5.2000E-09  2.1000E-09  1.1000E-09  1.5000E-09   0.000       0.000       0.000       0.000       0.000    
   7   8.5000E-09  5.2000E-09  2.1000E-09  1.2000E-09  2.0000E-09   0.000       0.000       0.000       0.000       0.000    
   8   5.0000E-10  5.2000E-09  2.1000E-09  1.2000E-09  5.0000E-09   0.000       0.000       0.000       0.000       0.000    
   9   5.0000E-10  5.2000E-09  2.1000E-09  1.2000E-09  5.0000E-09   0.000       0.000       0.000       0.000       0.000    
  10   5.0000E-10  5.2000E-09  2.1000E-09  1.2000E-09  5.8000E-09   0.000       0.000       0.000       0.000       0.000    
  11   1.0000E-10  1.1000E-09  1.1000E-09  1.2000E-09  5.0000E-09   0.000       0.000       0.000       0.000       0.000    
  12   1.1000E-09  1.1000E-09  1.1000E-09  1.1000E-09  2.0000E-09   0.000       0.000       0.000       0.000       0.000    
  13   1.1000E-09  2.2000E-09  2.2000E-09  2.1000E-09  1.0000E-09   0.000       0.000       0.000       0.000       0.000    
  14   2.0000E-10  5.5000E-09  5.5000E-09  5.2000E-09  1.0000E-09   0.000       0.000       0.000       0.000       0.000    
  15    0.000      8.8000E-09  8.8000E-09   0.000       0.000       0.000       0.000       0.000       0.000       0.000    

                  ET RATE =  4.000000E-07

 USING ET EXTINCTION DEPTH FROM PREVIOUS STRESS PERIOD. CURRENT PERIOD IS:       8

 USING EXTINCTION WATER CONTENT FROM PREVIOUS STRESS PERIOD. CURRENT PERIOD IS:       8

 USING AIR ENTRY PRESSURE FROM PREVIOUS STRESS PERIOD. CURRENT PERIOD IS:       8

 USING ROOT PRESSURE HEAD FROM PREVIOUS STRESS PERIOD. CURRENT PERIOD IS:       8

 USING ROOT ACTIVITY FROM PREVIOUS STRESS PERIOD. CURRENT PERIOD IS:       8

 PROCESSING AG STRESS PERIOD DATA

 READING AG STRESS PERIOD DATA

 READING IRRIGATION SEGMENT

 READING IRRIGATION WELL

 READING SUPPLEMENTAL WELL

 END PROCESSING AG STRESS PERIOD DATA OPTIONS
 
 SOLVING FOR HEAD 
                                                   Max.-Head-Change                         Max.-Flux-Residual
  Residual-Control   Outer-Iter.   Inner-Iter.     Column Row Layer    Maximum-Head-Change  Column Row Layer    Maximum-Flux-Residual          L2-NORM 
          0                 1           2             2   13     1       0.5586129054E-02       2   13    1         0.3171246844E+00      0.6763252067E+00
          0                 2           2             4    7     1      -0.1366482308E+00       5    6    1        -0.7340322594E+01      0.1806057880E+02
          0                 3           2             4    7     1       0.2998178956E-01       5    6    1         0.1655991760E+01      0.4060085636E+01
          0                 4           2             4    7     1      -0.1193009231E-02       5    6    1        -0.6773041348E-01      0.1665005551E+00
          0                 5           1             4    7     1       0.1471031135E-04       5    6    1         0.8583527165E-03      0.2184742877E-02

    ------------------------------------------------
       NWT REQUIRED            5 OUTER ITERATIONS 
       AND A TOTAL OF          9 INNER ITERATIONS.
    ------------------------------------------------

 OUTPUT CONTROL FOR STRESS PERIOD    8   TIME STEP    1
    PRINT BUDGET
    SAVE BUDGET
 UBDSV1 SAVING "         STORAGE" ON UNIT 102 AT TIME STEP  1, STRESS PERIOD   8
 UBDSV2 SAVING "   CONSTANT HEAD" ON UNIT 102 AT TIME STEP  1, STRESS PERIOD   8
 UBDSV1 SAVING "FLOW RIGHT FACE " ON UNIT 102 AT TIME STEP  1, STRESS PERIOD   8
 UBDSV1 SAVING "FLOW FRONT FACE " ON UNIT 102 AT TIME STEP  1, STRESS PERIOD   8

  HEAD DEP BOUNDS   PERIOD    8   STEP     1
 BOUNDARY      1   LAYER   1   ROW    13   COL     1   RATE   -0.293264    
 BOUNDARY      2   LAYER   1   ROW    14   COL     9   RATE    0.285764    



 STREAM LISTING     PERIOD      8   STEP        1

 LAYER ROW COL. STREAM  RCH.  FLOW INTO     FLOW TO   FLOW OUT OF   OVRLND.     DIRECT     STREAM       STREAM     STREAM     STREAM   STREAMBED  STREAMBED
                SEG.NO.  NO.  STRM. RCH.    AQUIFER    STRM. RCH.    RUNOFF     PRECIP       ET          HEAD       DEPTH      WIDTH   CONDCTNC.   GRADIENT

   1    1    1     1     1    5.6250E+01  3.5875E-01   5.5891E+01  0.000E+00  0.000E+00  0.000E+00  1.09453E+03  1.479E+00  1.780E+01  8.010E-02  1.493E+00
   1    2    2     1     2    5.5891E+01  5.5550E-01   5.5336E+01  0.000E+00  0.000E+00  0.000E+00  1.08953E+03  1.473E+00  1.774E+01  1.242E-01  1.491E+00
   1    3    3     1     3    5.5336E+01  4.7368E-01   5.4862E+01  0.000E+00  0.000E+00  0.000E+00  1.08389E+03  1.467E+00  1.767E+01  1.060E-01  1.489E+00
   1    3    4     1     4    5.4862E+01  4.3613E-01   5.4426E+01  0.000E+00  0.000E+00  0.000E+00  1.07887E+03  1.461E+00  1.762E+01  9.777E-02  1.487E+00
   1    4    5     2     1    5.2426E+01  3.8056E-01   5.2046E+01  0.000E+00  0.000E+00  0.000E+00  1.07381E+03  1.879E+00  1.200E+01  7.800E-02  1.626E+00
   1    5    6     2     2    5.2046E+01  2.9230E-01   5.1753E+01  0.000E+00  0.000E+00  0.000E+00  1.06838E+03  1.872E+00  1.200E+01  6.000E-02  1.624E+00
   1    6    6     2     3    5.1753E+01  2.9192E-01   5.1461E+01  0.000E+00  0.000E+00  0.000E+00  1.06366E+03  1.865E+00  1.200E+01  6.000E-02  1.622E+00
   1    7    6     2     4    5.1461E+01  2.9154E-01   5.1170E+01  0.000E+00  0.000E+00  0.000E+00  1.05893E+03  1.859E+00  1.200E+01  6.000E-02  1.620E+00
   1    8    6     2     5    5.1170E+01  2.9116E-01   5.0879E+01  0.000E+00  0.000E+00  0.000E+00  1.05421E+03  1.853E+00  1.200E+01  6.000E-02  1.618E+00
   1    3    5     3     1    2.0000E+00  2.8252E-01   1.7175E+00  0.000E+00  0.000E+00  0.000E+00  1.07555E+03  1.909E+00  9.636E+00  7.227E-02  1.955E+00
   1    3    6     3     2    1.7175E+00  2.4905E-01   1.4684E+00  0.000E+00  0.000E+00  0.000E+00  1.07264E+03  1.727E+00  8.909E+00  6.682E-02  1.864E+00
   1    3    7     3     3    1.4684E+00  1.9718E-01   1.2712E+00  0.000E+00  0.000E+00  0.000E+00  1.06987E+03  1.555E+00  8.218E+00  5.547E-02  1.777E+00
   1    4    8     3     4    1.2712E+00  2.2567E-01   1.0456E+00  0.000E+00  0.000E+00  0.000E+00  1.06682E+03  1.364E+00  7.455E+00  6.709E-02  1.682E+00
   1    5    8     3     5    1.0456E+00  1.5790E-01   8.8768E-01  0.000E+00  0.000E+00  0.000E+00  1.06362E+03  1.164E+00  6.655E+00  4.991E-02  1.582E+00
   1    6    8     3     6    8.8768E-01  5.5980E-02   8.3170E-01  0.000E+00  0.000E+00  0.000E+00  1.06158E+03  1.036E+00  6.145E+00  1.844E-02  1.518E+00
   1    5   10     4     1    1.0000E+01  9.0919E-02   9.9091E+00  0.000E+00  0.000E+00  0.000E+00  1.07836E+03  6.368E-01  1.000E+01  2.500E-02  1.212E+00
   1    5    9     4     2    9.9091E+00  1.8158E-01   9.7275E+00  0.000E+00  0.000E+00  0.000E+00  1.07154E+03  6.315E-01  1.000E+01  5.000E-02  1.211E+00
   1    6    8     4     3    9.7275E+00  1.2689E-01   9.6006E+00  0.000E+00  0.000E+00  0.000E+00  1.06381E+03  6.256E-01  1.000E+01  3.500E-02  1.209E+00
   1    6    8     5     1    1.0432E+01  2.2686E-01   1.0205E+01  0.000E+00  0.000E+00  0.000E+00  1.05868E+03  6.790E-01  1.542E+01  6.166E-02  1.226E+00
   1    7    7     5     2    1.0205E+01  2.7894E-01   9.9265E+00  0.000E+00  0.000E+00  0.000E+00  1.05417E+03  6.732E-01  1.519E+01  7.594E-02  1.224E+00
   1    8    7     5     3    9.9265E+00  1.9221E-01   9.7343E+00  0.000E+00  0.000E+00  0.000E+00  1.04992E+03  6.676E-01  1.497E+01  5.241E-02  1.223E+00
   1    8    6     5     4    9.7343E+00  1.3577E-01   9.5985E+00  0.000E+00  0.000E+00  0.000E+00  1.04691E+03  6.637E-01  1.482E+01  3.706E-02  1.221E+00
   1    9    6     6     1    9.5985E+00  2.2097E-01   9.3776E+00  0.000E+00  0.000E+00  0.000E+00  1.04341E+03  6.828E-01  1.200E+01  6.000E-02  1.228E+00
   1   10    7     6     2    9.3776E+00  2.2039E-01   9.1572E+00  0.000E+00  0.000E+00  0.000E+00  1.03885E+03  6.732E-01  1.200E+01  6.000E-02  1.224E+00
   1   11    7     6     3    9.1572E+00  2.1981E-01   8.9374E+00  0.000E+00  0.000E+00  0.000E+00  1.03430E+03  6.636E-01  1.200E+01  6.000E-02  1.221E+00
   1   12    7     6     4    8.9374E+00  2.1923E-01   8.7181E+00  0.000E+00  0.000E+00  0.000E+00  1.02974E+03  6.539E-01  1.200E+01  6.000E-02  1.218E+00
   1   13    7     6     5    8.7181E+00 -1.4422E-01   8.8623E+00  0.000E+00  0.000E+00  0.000E+00  1.02656E+03  6.522E-01  1.200E+01  2.400E-01 -2.003E-01
   1   14    9     7     1    1.5000E+02  1.3359E+00   1.4866E+02  0.000E+00  0.000E+00  0.000E+00  1.03987E+03  2.288E+00  5.529E+01  5.593E-01  7.962E-01
   1   13    8     7     2    1.4866E+02  1.8181E+00   1.4685E+02  0.000E+00  0.000E+00  0.000E+00  1.03478E+03  2.279E+00  5.526E+01  6.148E-01  9.858E-01
   1   13    7     7     3    1.4685E+02  1.4117E+00   1.4543E+02  0.000E+00  0.000E+00  0.000E+00  1.02969E+03  2.271E+00  5.522E+01  5.585E-01  8.426E-01
   1   13    6     8     1    1.5430E+02  7.6718E-01   1.5353E+02  0.000E+00  0.000E+00  0.000E+00  1.02472E+03  2.844E+00  4.124E+01  4.203E-01  6.085E-01
   1   13    5     8     2    1.5353E+02  4.5095E-02   1.5348E+02  0.000E+00  0.000E+00  0.000E+00  1.01847E+03  2.841E+00  4.120E+01  4.198E-01  3.580E-02
   1   13    4     8     3    1.5348E+02 -3.2329E+00   1.5672E+02  0.000E+00  0.000E+00  0.000E+00  1.01223E+03  2.852E+00  4.136E+01  4.215E+00 -2.557E-01
   1   13    3     8     4    1.5672E+02 -4.2493E+00   1.6097E+02  0.000E+00  0.000E+00  0.000E+00  1.00600E+03  2.878E+00  4.173E+01  4.253E+00 -3.331E-01
   1   13    2     8     5    1.6097E+02 -3.2484E+00   1.6421E+02  0.000E+00  0.000E+00  0.000E+00  9.99778E+02  2.903E+00  4.210E+01  4.290E+00 -2.524E-01
   1   13    1     8     6    1.6421E+02 -2.3844E+00   1.6660E+02  0.000E+00  0.000E+00  0.000E+00  9.94797E+02  2.922E+00  4.237E+01  2.591E+00 -3.068E-01
   1    8    6     9     1    5.0879E+01  0.0000E+00   5.0879E+01  0.000E+00  0.000E+00  0.000E+00  1.08476E+03  6.014E+00  4.000E+00  0.000E+00  3.005E+00
   1    8    5     9     2    5.0879E+01  0.0000E+00   5.0879E+01  0.000E+00  0.000E+00  0.000E+00  1.08426E+03  6.014E+00  4.000E+00  0.000E+00  3.005E+00



 UBDSV3 SAVING "           GW ET" ON UNIT  61 AT TIME STEP  1, STRESS PERIOD   8
 UBDSV3 SAVING "    UZF RECHARGE" ON UNIT  61 AT TIME STEP  1, STRESS PERIOD   8
 UBDSV3 SAVING " SURFACE LEAKAGE" ON UNIT  61 AT TIME STEP  1, STRESS PERIOD   8
 UBDSV3 SAVING "       HORT+DUNN" ON UNIT  61 AT TIME STEP  1, STRESS PERIOD   8
 UBDSV3 SAVING "  STORAGE CHANGE" ON UNIT  61 AT TIME STEP  1, STRESS PERIOD   8


UNSATURATED ZONE PACKAGE VOLUMETRIC BUDGET FOR  TIME STEP     1 STRESS PERIOD    8
  ------------------------------------------------------------------------------



     CUMULATIVE VOLUMES      L**3       RATES FOR THIS TIME STEP      L**3/T
     ------------------                 ------------------------

           IN:                                      IN:
           ---                                      ---
        INFILTRATION =   164968907.9788          INFILTRATION =          92.4597

          OUT:                                     OUT:
          ----                                     ----
              UZF ET =   141944838.9067                UZF ET =          64.1075
        UZF RECHARGE =       73224.0000          UZF RECHARGE =       0.0000E+00

            IN - OUT =    22950845.0720              IN - OUT =          28.3522

          STORAGE:                                 STORAGE:
          --------                                 --------
      STORAGE CHANGE =    22950843.6207        STORAGE CHANGE =          28.3522

 PERCENT DISCREPANCY IS DIFFERENCE BETWEEN IN-OUT MINUS CHANGE IN STORAGE
 DIVIDED BY THE AVERAGE OF IN AND OUT TIMES 100

 PERCENT DISCREPANCY =           0.00     PERCENT DISCREPANCY =           0.00






 

            AG WELLS      PERIOD    8   STEP   1
 AG WELL      1   LAYER   1   ROW     6   COL     4   RATE    -6.19543    
 AG WELL      2   LAYER   1   ROW     6   COL     5   RATE    -6.19543    
 AG WELL      3   LAYER   1   ROW     7   COL     4   RATE    -6.19543    
 AG WELL      4   LAYER   1   ROW     7   COL     5   RATE    -6.19543    
 AG WELL      5   LAYER   1   ROW     8   COL     4   RATE    -6.19543    
 AG WELL      6   LAYER   1   ROW     8   COL     5   RATE    -6.19543    
 
 

   DIVERSION SEGMENTS     PERIOD    8   STEP   1
 SEGMENT      9   RATE     50.8787    
 
 

        SW IRRIGATION     PERIOD    8   STEP   1
 SEGMENT      9   ROW     6   COL     4   RATE     8.47995    
 SEGMENT      9   ROW     6   COL     5   RATE     8.47995    
 SEGMENT      9   ROW     7   COL     4   RATE     8.47995    
 SEGMENT      9   ROW     7   COL     5   RATE     8.47995    
 SEGMENT      9   ROW     8   COL     4   RATE     8.47995    
 SEGMENT      9   ROW     8   COL     5   RATE     8.47995    
 
 

        GW IRRIGATION     PERIOD    8   STEP   1
 AG WELL      1   ROW     6   COL     4   RATE     6.19543    
 AG WELL      2   ROW     6   COL     5   RATE     6.19543    
 AG WELL      3   ROW     7   COL     4   RATE     6.19543    
 AG WELL      4   ROW     7   COL     5   RATE     6.19543    
 AG WELL      5   ROW     8   COL     4   RATE     6.19543    
 AG WELL      6   ROW     8   COL     5   RATE     6.19543    
 
1
  VOLUMETRIC BUDGET FOR AGRICULTURAL FIELDS AT  END OF TIME STEP    1, STRESS PERIOD   8
  ------------------------------------------------------------------------------

     CUMULATIVE VOLUMES      L**3       RATES FOR THIS TIME STEP      L**3/T
     ------------------                 ------------------------

           IN:                                      IN:
           ---                                      ---
               AG WELLS  =     3305636.7500                 AG WELLS  =          37.1726
      DIVERSION SEGMENTS =    91698320.0000        DIVERSION SEGMENTS =          50.8787
           GW IRRIGATION =           0.0000             GW IRRIGATION =           0.0000
           SW IRRIGATION =           0.0000             SW IRRIGATION =           0.0000
        SYSTEM LOSSES GW =           0.0000          SYSTEM LOSSES GW =           0.0000
        SYSTEM LOSSES SW =           0.0000          SYSTEM LOSSES SW =           0.0000

                TOTAL IN =    95003960.0000                  TOTAL IN =          88.0512

          OUT:                                     OUT:
          ----                                     ----
               AG WELLS  =           0.0000                 AG WELLS  =           0.0000
      DIVERSION SEGMENTS =           0.0000        DIVERSION SEGMENTS =           0.0000
           GW IRRIGATION =     3305636.7500             GW IRRIGATION =          37.1726
           SW IRRIGATION =    91700144.0000             SW IRRIGATION =          50.8797
        SYSTEM LOSSES GW =           0.0000          SYSTEM LOSSES GW =           0.0000
        SYSTEM LOSSES SW =           0.0000          SYSTEM LOSSES SW =           0.0000

               TOTAL OUT =    95005784.0000                 TOTAL OUT =          88.0522

                IN - OUT =       -1824.0000                  IN - OUT =      -1.0147E-03

     PERCENT DISCREPANCY =          -0.00         PERCENT DISCREPANCY =          -0.00



1
  VOLUMETRIC BUDGET FOR ENTIRE MODEL AT END OF TIME STEP    1, STRESS PERIOD   8
  ------------------------------------------------------------------------------

     CUMULATIVE VOLUMES      L**3       RATES FOR THIS TIME STEP      L**3/T
     ------------------                 ------------------------

           IN:                                      IN:
           ---                                      ---
             STORAGE     =    15453255.0000               STORAGE     =          40.0668
       CONSTANT HEAD     =           0.0000         CONSTANT HEAD     =           0.0000
     HEAD DEP BOUNDS     =     4558401.0000       HEAD DEP BOUNDS     =           0.2858
      STREAM LEAKAGE     =   195482688.0000        STREAM LEAKAGE     =          12.0315
        UZF RECHARGE     =       73223.9531          UZF RECHARGE     =           0.0000
               GW ET     =           0.0000                 GW ET     =           0.0000
     SURFACE LEAKAGE     =           0.0000       SURFACE LEAKAGE     =           0.0000
           AG WELLS      =           0.0000             AG WELLS      =           0.0000

                TOTAL IN =   215567552.0000                  TOTAL IN =          52.3840

          OUT:                                     OUT:
          ----                                     ----
             STORAGE     =    37717184.0000               STORAGE     =           1.6145
       CONSTANT HEAD     =           0.0000         CONSTANT HEAD     =           0.0000
     HEAD DEP BOUNDS     =     4658614.5000       HEAD DEP BOUNDS     =           0.2933
      STREAM LEAKAGE     =   168395056.0000        STREAM LEAKAGE     =          13.2592
        UZF RECHARGE     =           0.0000          UZF RECHARGE     =           0.0000
               GW ET     =     1494030.3750                 GW ET     =       4.4422E-02
     SURFACE LEAKAGE     =           0.0000       SURFACE LEAKAGE     =           0.0000
           AG WELLS      =     3305636.7500             AG WELLS      =          37.1726

               TOTAL OUT =   215570512.0000                 TOTAL OUT =          52.3839

                IN - OUT =       -2960.0000                  IN - OUT =       9.1553E-05

     PERCENT DISCREPANCY =          -0.00         PERCENT DISCREPANCY =           0.00






         TIME SUMMARY AT END OF TIME STEP    1 IN STRESS PERIOD    8
                    SECONDS     MINUTES      HOURS       DAYS        YEARS
                    -----------------------------------------------------------
   TIME STEP LENGTH  87667.      1461.1      24.352      1.0147     2.77799E-03
 STRESS PERIOD TIME  87667.      1461.1      24.352      1.0147     2.77799E-03
         TOTAL TIME 1.59541E+07 2.65901E+05  4431.7      184.65     0.50555    
1
 
 SOLVING FOR HEAD 
                                                   Max.-Head-Change                         Max.-Flux-Residual
  Residual-Control   Outer-Iter.   Inner-Iter.     Column Row Layer    Maximum-Head-Change  Column Row Layer    Maximum-Flux-Residual          L2-NORM 
          0                 1           2             4   13     1       0.8374771243E-02       4   13    1         0.4837158433E+00      0.9839634149E+00
          0                 2           2             4    7     1      -0.1043934970E+00       5    6    1        -0.5618786480E+01      0.1381896770E+02
          0                 3           2             4    7     1       0.5932482395E-01       5    6    1         0.3274474400E+01      0.8047304949E+01
          0                 4           2             4    7     1      -0.2360612800E-02       4    8    1        -0.1338921367E+00      0.3310638778E+00
          0                 5           1             4    7     1       0.2910734252E-04       4    7    1         0.1696444559E-02      0.4515550167E-02

    ------------------------------------------------
       NWT REQUIRED            5 OUTER ITERATIONS 
       AND A TOTAL OF          9 INNER ITERATIONS.
    ------------------------------------------------

 NO OUTPUT CONTROL FOR STRESS PERIOD    8   TIME STEP    2
 
 SOLVING FOR HEAD 
                                                   Max.-Head-Change                         Max.-Flux-Residual
  Residual-Control   Outer-Iter.   Inner-Iter.     Column Row Layer    Maximum-Head-Change  Column Row Layer    Maximum-Flux-Residual          L2-NORM 
          0                 1           2             4   13     1       0.9443231931E-02       4   13    1         0.5441641407E+00      0.1140775533E+01
          0                 2           2             4    7     1      -0.2105277448E+00       5    6    1        -0.1132090898E+02      0.2778541015E+02
          0                 3           2             4    7     1       0.1433486461E-01       5    6    1         0.7923172785E+00      0.1950080126E+01
          0                 4           2             4    7     1      -0.5703989813E-03       5    6    1        -0.3239286402E-01      0.8044220426E-01
          0                 5           1             4    7     1       0.7033264579E-05       3   13    1        -0.4099473463E-03      0.1137947254E-02

    ------------------------------------------------
       NWT REQUIRED            5 OUTER ITERATIONS 
       AND A TOTAL OF          9 INNER ITERATIONS.
    ------------------------------------------------

 NO OUTPUT CONTROL FOR STRESS PERIOD    8   TIME STEP    3
 
 SOLVING FOR HEAD 
                                                   Max.-Head-Change                         Max.-Flux-Residual
  Residual-Control   Outer-Iter.   Inner-Iter.     Column Row Layer    Maximum-Head-Change  Column Row Layer    Maximum-Flux-Residual          L2-NORM 
          0                 1           2             5    8     1       0.1055173691E-01       4   13    1         0.5988012546E+00      0.1631662537E+01
          0                 2           2             4    7     1      -0.9378659833E-01       5    8    1        -0.5079051693E+01      0.1245968274E+02
          0                 3           2             4    7     1       0.6906915677E-01       5    8    1         0.3814198906E+01      0.9365105278E+01
          0                 4           2             4    7     1      -0.2748356073E-02       5    8    1        -0.1559627614E+00      0.4062738797E+00
          0                 5           2             7   13     1       0.1570257231E-03       7   13    1         0.8995815889E-02      0.1042398136E-01
          0                 6           1             7   13     1      -0.6245184640E-05       7   13    1        -0.3676869646E-03      0.3755485892E-03

    ------------------------------------------------
       NWT REQUIRED            6 OUTER ITERATIONS 
       AND A TOTAL OF         11 INNER ITERATIONS.
    ------------------------------------------------

 NO OUTPUT CONTROL FOR STRESS PERIOD    8   TIME STEP    4
 
 SOLVING FOR HEAD 
                                                   Max.-Head-Change                         Max.-Flux-Residual
  Residual-Control   Outer-Iter.   Inner-Iter.     Column Row Layer    Maximum-Head-Change  Column Row Layer    Maximum-Flux-Residual          L2-NORM 
          0                 1           2             4   13     1       0.1124029879E-01       4   13    1         0.6481997686E+00      0.1707047669E+01
          0                 2           2             4    7     1      -0.2109264343E+00       5    8    1        -0.1136660637E+02      0.2787190368E+02
          0                 3           2             4    7     1       0.1436304610E-01       5    6    1         0.7955069674E+00      0.1953897098E+01
          0                 4           2             4    7     1      -0.5715202983E-03       5    6    1        -0.3252455125E-01      0.8014277957E-01
          0                 5           1             4    7     1       0.7047091018E-05       5    6    1         0.4113855784E-03      0.1062625736E-02

    ------------------------------------------------
       NWT REQUIRED            5 OUTER ITERATIONS 
       AND A TOTAL OF          9 INNER ITERATIONS.
    ------------------------------------------------

 OUTPUT CONTROL FOR STRESS PERIOD    8   TIME STEP    5
    PRINT BUDGET
    SAVE BUDGET
 UBDSV1 SAVING "         STORAGE" ON UNIT 102 AT TIME STEP  5, STRESS PERIOD   8
 UBDSV2 SAVING "   CONSTANT HEAD" ON UNIT 102 AT TIME STEP  5, STRESS PERIOD   8
 UBDSV1 SAVING "FLOW RIGHT FACE " ON UNIT 102 AT TIME STEP  5, STRESS PERIOD   8
 UBDSV1 SAVING "FLOW FRONT FACE " ON UNIT 102 AT TIME STEP  5, STRESS PERIOD   8

  HEAD DEP BOUNDS   PERIOD    8   STEP     5
 BOUNDARY      1   LAYER   1   ROW    13   COL     1   RATE   -0.292253    
 BOUNDARY      2   LAYER   1   ROW    14   COL     9   RATE    0.285764    



 STREAM LISTING     PERIOD      8   STEP        5

 LAYER ROW COL. STREAM  RCH.  FLOW INTO     FLOW TO   FLOW OUT OF   OVRLND.     DIRECT     STREAM       STREAM     STREAM     STREAM   STREAMBED  STREAMBED
                SEG.NO.  NO.  STRM. RCH.    AQUIFER    STRM. RCH.    RUNOFF     PRECIP       ET          HEAD       DEPTH      WIDTH   CONDCTNC.   GRADIENT

   1    1    1     1     1    5.6250E+01  3.5875E-01   5.5891E+01  0.000E+00  0.000E+00  0.000E+00  1.09453E+03  1.479E+00  1.780E+01  8.010E-02  1.493E+00
   1    2    2     1     2    5.5891E+01  5.5550E-01   5.5336E+01  0.000E+00  0.000E+00  0.000E+00  1.08953E+03  1.473E+00  1.774E+01  1.242E-01  1.491E+00
   1    3    3     1     3    5.5336E+01  4.7368E-01   5.4862E+01  0.000E+00  0.000E+00  0.000E+00  1.08389E+03  1.467E+00  1.767E+01  1.060E-01  1.489E+00
   1    3    4     1     4    5.4862E+01  4.3613E-01   5.4426E+01  0.000E+00  0.000E+00  0.000E+00  1.07887E+03  1.461E+00  1.762E+01  9.777E-02  1.487E+00
   1    4    5     2     1    5.2426E+01  3.8056E-01   5.2046E+01  0.000E+00  0.000E+00  0.000E+00  1.07381E+03  1.879E+00  1.200E+01  7.800E-02  1.626E+00
   1    5    6     2     2    5.2046E+01  2.9230E-01   5.1753E+01  0.000E+00  0.000E+00  0.000E+00  1.06838E+03  1.872E+00  1.200E+01  6.000E-02  1.624E+00
   1    6    6     2     3    5.1753E+01  2.9192E-01   5.1461E+01  0.000E+00  0.000E+00  0.000E+00  1.06366E+03  1.865E+00  1.200E+01  6.000E-02  1.622E+00
   1    7    6     2     4    5.1461E+01  2.9154E-01   5.1170E+01  0.000E+00  0.000E+00  0.000E+00  1.05893E+03  1.859E+00  1.200E+01  6.000E-02  1.620E+00
   1    8    6     2     5    5.1170E+01  2.9116E-01   5.0879E+01  0.000E+00  0.000E+00  0.000E+00  1.05421E+03  1.853E+00  1.200E+01  6.000E-02  1.618E+00
   1    3    5     3     1    2.0000E+00  2.8252E-01   1.7175E+00  0.000E+00  0.000E+00  0.000E+00  1.07555E+03  1.909E+00  9.636E+00  7.227E-02  1.955E+00
   1    3    6     3     2    1.7175E+00  2.4905E-01   1.4684E+00  0.000E+00  0.000E+00  0.000E+00  1.07264E+03  1.727E+00  8.909E+00  6.682E-02  1.864E+00
   1    3    7     3     3    1.4684E+00  1.9718E-01   1.2712E+00  0.000E+00  0.000E+00  0.000E+00  1.06987E+03  1.555E+00  8.218E+00  5.547E-02  1.777E+00
   1    4    8     3     4    1.2712E+00  2.2567E-01   1.0456E+00  0.000E+00  0.000E+00  0.000E+00  1.06682E+03  1.364E+00  7.455E+00  6.709E-02  1.682E+00
   1    5    8     3     5    1.0456E+00  1.5790E-01   8.8768E-01  0.000E+00  0.000E+00  0.000E+00  1.06362E+03  1.164E+00  6.655E+00  4.991E-02  1.582E+00
   1    6    8     3     6    8.8768E-01  5.5980E-02   8.3170E-01  0.000E+00  0.000E+00  0.000E+00  1.06158E+03  1.036E+00  6.145E+00  1.844E-02  1.518E+00
   1    5   10     4     1    1.0000E+01  9.0919E-02   9.9091E+00  0.000E+00  0.000E+00  0.000E+00  1.07836E+03  6.368E-01  1.000E+01  2.500E-02  1.212E+00
   1    5    9     4     2    9.9091E+00  1.8158E-01   9.7275E+00  0.000E+00  0.000E+00  0.000E+00  1.07154E+03  6.315E-01  1.000E+01  5.000E-02  1.211E+00
   1    6    8     4     3    9.7275E+00  1.2689E-01   9.6006E+00  0.000E+00  0.000E+00  0.000E+00  1.06381E+03  6.256E-01  1.000E+01  3.500E-02  1.209E+00
   1    6    8     5     1    1.0432E+01  2.2686E-01   1.0205E+01  0.000E+00  0.000E+00  0.000E+00  1.05868E+03  6.790E-01  1.542E+01  6.166E-02  1.226E+00
   1    7    7     5     2    1.0205E+01  2.7894E-01   9.9265E+00  0.000E+00  0.000E+00  0.000E+00  1.05417E+03  6.732E-01  1.519E+01  7.594E-02  1.224E+00
   1    8    7     5     3    9.9265E+00  1.9221E-01   9.7343E+00  0.000E+00  0.000E+00  0.000E+00  1.04992E+03  6.676E-01  1.497E+01  5.241E-02  1.223E+00
   1    8    6     5     4    9.7343E+00  1.3577E-01   9.5985E+00  0.000E+00  0.000E+00  0.000E+00  1.04691E+03  6.637E-01  1.482E+01  3.706E-02  1.221E+00
   1    9    6     6     1    9.5985E+00  2.2097E-01   9.3776E+00  0.000E+00  0.000E+00  0.000E+00  1.04341E+03  6.828E-01  1.200E+01  6.000E-02  1.228E+00
   1   10    7     6     2    9.3776E+00  2.2039E-01   9.1572E+00  0.000E+00  0.000E+00  0.000E+00  1.03885E+03  6.732E-01  1.200E+01  6.000E-02  1.224E+00
   1   11    7     6     3    9.1572E+00  2.1981E-01   8.9374E+00  0.000E+00  0.000E+00  0.000E+00  1.03430E+03  6.636E-01  1.200E+01  6.000E-02  1.221E+00
   1   12    7     6     4    8.9374E+00  2.1923E-01   8.7181E+00  0.000E+00  0.000E+00  0.000E+00  1.02974E+03  6.539E-01  1.200E+01  6.000E-02  1.218E+00
   1   13    7     6     5    8.7181E+00 -1.4206E-01   8.8602E+00  0.000E+00  0.000E+00  0.000E+00  1.02656E+03  6.521E-01  1.200E+01  2.400E-01 -1.973E-01
   1   14    9     7     1    1.5000E+02  1.3359E+00   1.4866E+02  0.000E+00  0.000E+00  0.000E+00  1.03987E+03  2.288E+00  5.529E+01  5.593E-01  7.962E-01
   1   13    8     7     2    1.4866E+02  1.8180E+00   1.4685E+02  0.000E+00  0.000E+00  0.000E+00  1.03478E+03  2.279E+00  5.526E+01  6.148E-01  9.857E-01
   1   13    7     7     3    1.4685E+02  1.4168E+00   1.4543E+02  0.000E+00  0.000E+00  0.000E+00  1.02969E+03  2.271E+00  5.522E+01  5.585E-01  8.456E-01
   1   13    6     8     1    1.5429E+02  7.7150E-01   1.5352E+02  0.000E+00  0.000E+00  0.000E+00  1.02472E+03  2.844E+00  4.124E+01  4.202E-01  6.119E-01
   1   13    5     8     2    1.5352E+02  4.8644E-02   1.5347E+02  0.000E+00  0.000E+00  0.000E+00  1.01847E+03  2.841E+00  4.120E+01  4.198E-01  3.862E-02
   1   13    4     8     3    1.5347E+02 -3.0902E+00   1.5656E+02  0.000E+00  0.000E+00  0.000E+00  1.01223E+03  2.852E+00  4.135E+01  4.214E+00 -2.445E-01
   1   13    3     8     4    1.5656E+02 -4.1295E+00   1.6069E+02  0.000E+00  0.000E+00  0.000E+00  1.00600E+03  2.877E+00  4.171E+01  4.250E+00 -3.239E-01
   1   13    2     8     5    1.6069E+02 -3.0870E+00   1.6378E+02  0.000E+00  0.000E+00  0.000E+00  9.99776E+02  2.901E+00  4.206E+01  4.286E+00 -2.401E-01
   1   13    1     8     6    1.6378E+02 -2.3211E+00   1.6610E+02  0.000E+00  0.000E+00  0.000E+00  9.94794E+02  2.919E+00  4.232E+01  2.588E+00 -2.990E-01
   1    8    6     9     1    5.0879E+01  0.0000E+00   5.0879E+01  0.000E+00  0.000E+00  0.000E+00  1.08476E+03  6.014E+00  4.000E+00  0.000E+00  3.005E+00
   1    8    5     9     2    5.0879E+01  0.0000E+00   5.0879E+01  0.000E+00  0.000E+00  0.000E+00  1.08426E+03  6.014E+00  4.000E+00  0.000E+00  3.005E+00



 UBDSV3 SAVING "           GW ET" ON UNIT  61 AT TIME STEP  5, STRESS PERIOD   8
 UBDSV3 SAVING "    UZF RECHARGE" ON UNIT  61 AT TIME STEP  5, STRESS PERIOD   8
 UBDSV3 SAVING " SURFACE LEAKAGE" ON UNIT  61 AT TIME STEP  5, STRESS PERIOD   8
 UBDSV3 SAVING "       HORT+DUNN" ON UNIT  61 AT TIME STEP  5, STRESS PERIOD   8
 UBDSV3 SAVING "  STORAGE CHANGE" ON UNIT  61 AT TIME STEP  5, STRESS PERIOD   8


UNSATURATED ZONE PACKAGE VOLUMETRIC BUDGET FOR  TIME STEP     5 STRESS PERIOD    8
  ------------------------------------------------------------------------------



     CUMULATIVE VOLUMES      L**3       RATES FOR THIS TIME STEP      L**3/T
     ------------------                 ------------------------

           IN:                                      IN:
           ---                                      ---
        INFILTRATION =   198495587.8186          INFILTRATION =         123.1306

          OUT:                                     OUT:
          ----                                     ----
              UZF ET =   164425201.1841                UZF ET =          64.1075
        UZF RECHARGE =       73224.0000          UZF RECHARGE =       0.0000E+00

            IN - OUT =    33997162.6345              IN - OUT =          59.0231

          STORAGE:                                 STORAGE:
          --------                                 --------
      STORAGE CHANGE =    33997160.5822        STORAGE CHANGE =          59.0231

 PERCENT DISCREPANCY IS DIFFERENCE BETWEEN IN-OUT MINUS CHANGE IN STORAGE
 DIVIDED BY THE AVERAGE OF IN AND OUT TIMES 100

 PERCENT DISCREPANCY =           0.00     PERCENT DISCREPANCY =           0.00






 

            AG WELLS      PERIOD    8   STEP   5
 AG WELL      1   LAYER   1   ROW     6   COL     4   RATE    -11.3072    
 AG WELL      2   LAYER   1   ROW     6   COL     5   RATE    -11.3072    
 AG WELL      3   LAYER   1   ROW     7   COL     4   RATE    -11.3072    
 AG WELL      4   LAYER   1   ROW     7   COL     5   RATE    -11.3072    
 AG WELL      5   LAYER   1   ROW     8   COL     4   RATE    -11.3072    
 AG WELL      6   LAYER   1   ROW     8   COL     5   RATE    -11.3072    
 
 

   DIVERSION SEGMENTS     PERIOD    8   STEP   5
 SEGMENT      9   RATE     50.8787    
 
 

        SW IRRIGATION     PERIOD    8   STEP   5
 SEGMENT      9   ROW     6   COL     4   RATE     8.47995    
 SEGMENT      9   ROW     6   COL     5   RATE     8.47995    
 SEGMENT      9   ROW     7   COL     4   RATE     8.47995    
 SEGMENT      9   ROW     7   COL     5   RATE     8.47995    
 SEGMENT      9   ROW     8   COL     4   RATE     8.47995    
 SEGMENT      9   ROW     8   COL     5   RATE     8.47995    
 
 

        GW IRRIGATION     PERIOD    8   STEP   5
 AG WELL      1   ROW     6   COL     4   RATE     11.3072    
 AG WELL      2   ROW     6   COL     5   RATE     11.3072    
 AG WELL      3   ROW     7   COL     4   RATE     11.3072    
 AG WELL      4   ROW     7   COL     5   RATE     11.3072    
 AG WELL      5   ROW     8   COL     4   RATE     11.3072    
 AG WELL      6   ROW     8   COL     5   RATE     11.3072    
 
1
  VOLUMETRIC BUDGET FOR AGRICULTURAL FIELDS AT  END OF TIME STEP    5, STRESS PERIOD   8
  ------------------------------------------------------------------------------

     CUMULATIVE VOLUMES      L**3       RATES FOR THIS TIME STEP      L**3/T
     ------------------                 ------------------------

           IN:                                      IN:
           ---                                      ---
               AG WELLS  =    17444948.0000                 AG WELLS  =          67.8434
      DIVERSION SEGMENTS =   109539760.0000        DIVERSION SEGMENTS =          50.8787
           GW IRRIGATION =           0.0000             GW IRRIGATION =           0.0000
           SW IRRIGATION =           0.0000             SW IRRIGATION =           0.0000
        SYSTEM LOSSES GW =           0.0000          SYSTEM LOSSES GW =           0.0000
        SYSTEM LOSSES SW =           0.0000          SYSTEM LOSSES SW =           0.0000

                TOTAL IN =   126984704.0000                  TOTAL IN =         118.7221

          OUT:                                     OUT:
          ----                                     ----
               AG WELLS  =           0.0000                 AG WELLS  =           0.0000
      DIVERSION SEGMENTS =           0.0000        DIVERSION SEGMENTS =           0.0000
           GW IRRIGATION =    17444948.0000             GW IRRIGATION =          67.8434
           SW IRRIGATION =   109541936.0000             SW IRRIGATION =          50.8797
        SYSTEM LOSSES GW =           0.0000          SYSTEM LOSSES GW =           0.0000
        SYSTEM LOSSES SW =           0.0000          SYSTEM LOSSES SW =           0.0000

               TOTAL OUT =   126986880.0000                 TOTAL OUT =         118.7231

                IN - OUT =       -2176.0000                  IN - OUT =      -1.0147E-03

     PERCENT DISCREPANCY =          -0.00         PERCENT DISCREPANCY =          -0.00



1
  VOLUMETRIC BUDGET FOR ENTIRE MODEL AT END OF TIME STEP    5, STRESS PERIOD   8
  ------------------------------------------------------------------------------

     CUMULATIVE VOLUMES      L**3       RATES FOR THIS TIME STEP      L**3/T
     ------------------                 ------------------------

           IN:                                      IN:
           ---                                      ---
             STORAGE     =    30439896.0000               STORAGE     =          70.0019
       CONSTANT HEAD     =           0.0000         CONSTANT HEAD     =           0.0000
     HEAD DEP BOUNDS     =     4658609.0000       HEAD DEP BOUNDS     =           0.2858
      STREAM LEAKAGE     =   199704528.0000        STREAM LEAKAGE     =          12.0442
        UZF RECHARGE     =       73223.9531          UZF RECHARGE     =           0.0000
               GW ET     =           0.0000                 GW ET     =           0.0000
     SURFACE LEAKAGE     =           0.0000       SURFACE LEAKAGE     =           0.0000
           AG WELLS      =           0.0000             AG WELLS      =           0.0000

                TOTAL IN =   234876256.0000                  TOTAL IN =          82.3318

          OUT:                                     OUT:
          ----                                     ----
             STORAGE     =    38245676.0000               STORAGE     =           1.4262
       CONSTANT HEAD     =           0.0000         CONSTANT HEAD     =           0.0000
     HEAD DEP BOUNDS     =     4761226.5000       HEAD DEP BOUNDS     =           0.2923
      STREAM LEAKAGE     =   172933296.0000        STREAM LEAKAGE     =          12.7699
        UZF RECHARGE     =           0.0000          UZF RECHARGE     =           0.0000
               GW ET     =     1494030.3750                 GW ET     =           0.0000
     SURFACE LEAKAGE     =           0.0000       SURFACE LEAKAGE     =           0.0000
           AG WELLS      =    17444948.0000             AG WELLS      =          67.8434

               TOTAL OUT =   234879168.0000                 TOTAL OUT =          82.3318

                IN - OUT =       -2912.0000                  IN - OUT =       3.8147E-05

     PERCENT DISCREPANCY =          -0.00         PERCENT DISCREPANCY =           0.00






         TIME SUMMARY AT END OF TIME STEP    5 IN STRESS PERIOD    8
                    SECONDS     MINUTES      HOURS       DAYS        YEARS
                    -----------------------------------------------------------
   TIME STEP LENGTH  87667.      1461.1      24.352      1.0147     2.77799E-03
 STRESS PERIOD TIME 4.38333E+05  7305.6      121.76      5.0733     1.38899E-02
         TOTAL TIME 1.63048E+07 2.71746E+05  4529.1      188.71     0.51667    
1
 
 SOLVING FOR HEAD 
                                                   Max.-Head-Change                         Max.-Flux-Residual
  Residual-Control   Outer-Iter.   Inner-Iter.     Column Row Layer    Maximum-Head-Change  Column Row Layer    Maximum-Flux-Residual          L2-NORM 
          0                 1           2             5    8     1       0.1619031343E-01       5    8    1         0.8898397093E+00      0.2263783250E+01
          0                 2           2             4    7     1      -0.9391895142E-01       5    8    1        -0.5108706309E+01      0.1251104265E+02
          0                 3           2             4    7     1       0.6910236324E-01       5    8    1         0.3817612110E+01      0.9372062767E+01
          0                 4           2             4    7     1      -0.2749677314E-02       5    8    1        -0.1561036173E+00      0.4062697336E+00
          0                 5           2             7   13     1       0.1559111568E-03       7   13    1         0.8931528293E-02      0.1036684147E-01
          0                 6           1             7   13     1      -0.6198780677E-05       7   13    1        -0.3649295541E-03      0.3729085421E-03

    ------------------------------------------------
       NWT REQUIRED            6 OUTER ITERATIONS 
       AND A TOTAL OF         11 INNER ITERATIONS.
    ------------------------------------------------

 NO OUTPUT CONTROL FOR STRESS PERIOD    8   TIME STEP    6
 
 SOLVING FOR HEAD 
                                                   Max.-Head-Change                         Max.-Flux-Residual
  Residual-Control   Outer-Iter.   Inner-Iter.     Column Row Layer    Maximum-Head-Change  Column Row Layer    Maximum-Flux-Residual          L2-NORM 
          0                 1           2             5    8     1       0.1614328062E-01       5    8    1         0.8866095875E+00      0.2302764258E+01
          0                 2           2             4    7     1      -0.2110914792E+00       5    8    1        -0.1139593087E+02      0.2792435787E+02
          0                 3           2             4    7     1       0.1437428858E-01       5    6    1         0.7975398555E+00      0.1957498336E+01
          0                 4           2             4    7     1      -0.5719676296E-03       5    6    1        -0.3260878492E-01      0.8028261847E-01
          0                 5           1             4    7     1       0.7052607077E-05       5    6    1         0.4125270157E-03      0.1062757057E-02

    ------------------------------------------------
       NWT REQUIRED            5 OUTER ITERATIONS 
       AND A TOTAL OF          9 INNER ITERATIONS.
    ------------------------------------------------

 NO OUTPUT CONTROL FOR STRESS PERIOD    8   TIME STEP    7
 
 SOLVING FOR HEAD 
                                                   Max.-Head-Change                         Max.-Flux-Residual
  Residual-Control   Outer-Iter.   Inner-Iter.     Column Row Layer    Maximum-Head-Change  Column Row Layer    Maximum-Flux-Residual          L2-NORM 
          0                 1           2             5    8     1       0.2124450292E-01       5    8    1         0.1167034924E+01      0.2863649940E+01
          0                 2           2             4    7     1      -0.9408933847E-01       5    8    1        -0.5136423548E+01      0.1256197007E+02
          0                 3           2             4    7     1       0.6911421948E-01       5    8    1         0.3819565877E+01      0.9375709694E+01
          0                 4           2             4    7     1      -0.2750149005E-02       5    8    1        -0.1561846248E+00      0.4061646068E+00
          0                 5           2             7   13     1       0.1548597025E-03       7   13    1         0.8871316040E-02      0.1032374008E-01
          0                 6           1             7   13     1      -0.6157144237E-05       7   13    1        -0.3624801016E-03      0.3705957377E-03

    ------------------------------------------------
       NWT REQUIRED            6 OUTER ITERATIONS 
       AND A TOTAL OF         11 INNER ITERATIONS.
    ------------------------------------------------

 NO OUTPUT CONTROL FOR STRESS PERIOD    8   TIME STEP    8
 
 SOLVING FOR HEAD 
                                                   Max.-Head-Change                         Max.-Flux-Residual
  Residual-Control   Outer-Iter.   Inner-Iter.     Column Row Layer    Maximum-Head-Change  Column Row Layer    Maximum-Flux-Residual          L2-NORM 
          0                 1           2             5    8     1       0.2093592645E-01       5    8    1         0.1149233279E+01      0.2870489649E+01
          0                 2           2             4    7     1      -0.2112680301E+00       5    8    1        -0.1142219377E+02      0.2797322147E+02
          0                 3           2             4    7     1       0.1438631398E-01       5    6    1         0.7993691592E+00      0.1960865336E+01
          0                 4           2             4    7     1      -0.5724461165E-03       5    6    1        -0.3268455606E-01      0.8041540042E-01
          0                 5           1             4    7     1       0.7058506674E-05       5    6    1         0.4135519689E-03      0.1063394726E-02

    ------------------------------------------------
       NWT REQUIRED            5 OUTER ITERATIONS 
       AND A TOTAL OF          9 INNER ITERATIONS.
    ------------------------------------------------

 NO OUTPUT CONTROL FOR STRESS PERIOD    8   TIME STEP    9
 
 SOLVING FOR HEAD 
                                                   Max.-Head-Change                         Max.-Flux-Residual
  Residual-Control   Outer-Iter.   Inner-Iter.     Column Row Layer    Maximum-Head-Change  Column Row Layer    Maximum-Flux-Residual          L2-NORM 
          0                 1           2             5    8     1       0.2579137866E-01       5    8    1         0.1415967580E+01      0.3420225197E+01
          0                 2           2             4    7     1      -0.9427048457E-01       5    8    1        -0.5161317453E+01      0.1260954277E+02
          0                 3           2             4    7     1       0.6912677425E-01       5    8    1         0.3821317746E+01      0.9379105285E+01
          0                 4           2             4    7     1      -0.2750648507E-02       5    8    1        -0.1562572330E+00      0.4060539576E+00
          0                 5           2             7   13     1       0.1538673525E-03       7   13    1         0.8814486100E-02      0.1027647990E-01
          0                 6           1             7   13     1      -0.6118303607E-05       7   13    1        -0.3601921489E-03      0.3683919188E-03

    ------------------------------------------------
       NWT REQUIRED            6 OUTER ITERATIONS 
       AND A TOTAL OF         11 INNER ITERATIONS.
    ------------------------------------------------

 OUTPUT CONTROL FOR STRESS PERIOD    8   TIME STEP   10
    PRINT BUDGET
    SAVE BUDGET
 UBDSV1 SAVING "         STORAGE" ON UNIT 102 AT TIME STEP 10, STRESS PERIOD   8
 UBDSV2 SAVING "   CONSTANT HEAD" ON UNIT 102 AT TIME STEP 10, STRESS PERIOD   8
 UBDSV1 SAVING "FLOW RIGHT FACE " ON UNIT 102 AT TIME STEP 10, STRESS PERIOD   8
 UBDSV1 SAVING "FLOW FRONT FACE " ON UNIT 102 AT TIME STEP 10, STRESS PERIOD   8

  HEAD DEP BOUNDS   PERIOD    8   STEP    10
 BOUNDARY      1   LAYER   1   ROW    13   COL     1   RATE   -0.291200    
 BOUNDARY      2   LAYER   1   ROW    14   COL     9   RATE    0.285763    



 STREAM LISTING     PERIOD      8   STEP       10

 LAYER ROW COL. STREAM  RCH.  FLOW INTO     FLOW TO   FLOW OUT OF   OVRLND.     DIRECT     STREAM       STREAM     STREAM     STREAM   STREAMBED  STREAMBED
                SEG.NO.  NO.  STRM. RCH.    AQUIFER    STRM. RCH.    RUNOFF     PRECIP       ET          HEAD       DEPTH      WIDTH   CONDCTNC.   GRADIENT

   1    1    1     1     1    5.6250E+01  3.5875E-01   5.5891E+01  0.000E+00  0.000E+00  0.000E+00  1.09453E+03  1.479E+00  1.780E+01  8.010E-02  1.493E+00
   1    2    2     1     2    5.5891E+01  5.5550E-01   5.5336E+01  0.000E+00  0.000E+00  0.000E+00  1.08953E+03  1.473E+00  1.774E+01  1.242E-01  1.491E+00
   1    3    3     1     3    5.5336E+01  4.7368E-01   5.4862E+01  0.000E+00  0.000E+00  0.000E+00  1.08389E+03  1.467E+00  1.767E+01  1.060E-01  1.489E+00
   1    3    4     1     4    5.4862E+01  4.3613E-01   5.4426E+01  0.000E+00  0.000E+00  0.000E+00  1.07887E+03  1.461E+00  1.762E+01  9.777E-02  1.487E+00
   1    4    5     2     1    5.2426E+01  3.8056E-01   5.2046E+01  0.000E+00  0.000E+00  0.000E+00  1.07381E+03  1.879E+00  1.200E+01  7.800E-02  1.626E+00
   1    5    6     2     2    5.2046E+01  2.9230E-01   5.1753E+01  0.000E+00  0.000E+00  0.000E+00  1.06838E+03  1.872E+00  1.200E+01  6.000E-02  1.624E+00
   1    6    6     2     3    5.1753E+01  2.9192E-01   5.1461E+01  0.000E+00  0.000E+00  0.000E+00  1.06366E+03  1.865E+00  1.200E+01  6.000E-02  1.622E+00
   1    7    6     2     4    5.1461E+01  2.9154E-01   5.1170E+01  0.000E+00  0.000E+00  0.000E+00  1.05893E+03  1.859E+00  1.200E+01  6.000E-02  1.620E+00
   1    8    6     2     5    5.1170E+01  2.9116E-01   5.0879E+01  0.000E+00  0.000E+00  0.000E+00  1.05421E+03  1.853E+00  1.200E+01  6.000E-02  1.618E+00
   1    3    5     3     1    2.0000E+00  2.8252E-01   1.7175E+00  0.000E+00  0.000E+00  0.000E+00  1.07555E+03  1.909E+00  9.636E+00  7.227E-02  1.955E+00
   1    3    6     3     2    1.7175E+00  2.4905E-01   1.4684E+00  0.000E+00  0.000E+00  0.000E+00  1.07264E+03  1.727E+00  8.909E+00  6.682E-02  1.864E+00
   1    3    7     3     3    1.4684E+00  1.9718E-01   1.2712E+00  0.000E+00  0.000E+00  0.000E+00  1.06987E+03  1.555E+00  8.218E+00  5.547E-02  1.777E+00
   1    4    8     3     4    1.2712E+00  2.2567E-01   1.0456E+00  0.000E+00  0.000E+00  0.000E+00  1.06682E+03  1.364E+00  7.455E+00  6.709E-02  1.682E+00
   1    5    8     3     5    1.0456E+00  1.5790E-01   8.8768E-01  0.000E+00  0.000E+00  0.000E+00  1.06362E+03  1.164E+00  6.655E+00  4.991E-02  1.582E+00
   1    6    8     3     6    8.8768E-01  5.5980E-02   8.3170E-01  0.000E+00  0.000E+00  0.000E+00  1.06158E+03  1.036E+00  6.145E+00  1.844E-02  1.518E+00
   1    5   10     4     1    1.0000E+01  9.0919E-02   9.9091E+00  0.000E+00  0.000E+00  0.000E+00  1.07836E+03  6.368E-01  1.000E+01  2.500E-02  1.212E+00
   1    5    9     4     2    9.9091E+00  1.8158E-01   9.7275E+00  0.000E+00  0.000E+00  0.000E+00  1.07154E+03  6.315E-01  1.000E+01  5.000E-02  1.211E+00
   1    6    8     4     3    9.7275E+00  1.2689E-01   9.6006E+00  0.000E+00  0.000E+00  0.000E+00  1.06381E+03  6.256E-01  1.000E+01  3.500E-02  1.209E+00
   1    6    8     5     1    1.0432E+01  2.2686E-01   1.0205E+01  0.000E+00  0.000E+00  0.000E+00  1.05868E+03  6.790E-01  1.542E+01  6.166E-02  1.226E+00
   1    7    7     5     2    1.0205E+01  2.7894E-01   9.9265E+00  0.000E+00  0.000E+00  0.000E+00  1.05417E+03  6.732E-01  1.519E+01  7.594E-02  1.224E+00
   1    8    7     5     3    9.9265E+00  1.9221E-01   9.7343E+00  0.000E+00  0.000E+00  0.000E+00  1.04992E+03  6.676E-01  1.497E+01  5.241E-02  1.223E+00
   1    8    6     5     4    9.7343E+00  1.3577E-01   9.5985E+00  0.000E+00  0.000E+00  0.000E+00  1.04691E+03  6.637E-01  1.482E+01  3.706E-02  1.221E+00
   1    9    6     6     1    9.5985E+00  2.2097E-01   9.3776E+00  0.000E+00  0.000E+00  0.000E+00  1.04341E+03  6.828E-01  1.200E+01  6.000E-02  1.228E+00
   1   10    7     6     2    9.3776E+00  2.2039E-01   9.1572E+00  0.000E+00  0.000E+00  0.000E+00  1.03885E+03  6.732E-01  1.200E+01  6.000E-02  1.224E+00
   1   11    7     6     3    9.1572E+00  2.1981E-01   8.9374E+00  0.000E+00  0.000E+00  0.000E+00  1.03430E+03  6.636E-01  1.200E+01  6.000E-02  1.221E+00
   1   12    7     6     4    8.9374E+00  2.1923E-01   8.7181E+00  0.000E+00  0.000E+00  0.000E+00  1.02974E+03  6.539E-01  1.200E+01  6.000E-02  1.218E+00
   1   13    7     6     5    8.7181E+00 -1.3969E-01   8.8578E+00  0.000E+00  0.000E+00  0.000E+00  1.02656E+03  6.521E-01  1.200E+01  2.400E-01 -1.940E-01
   1   14    9     7     1    1.5000E+02  1.3359E+00   1.4866E+02  0.000E+00  0.000E+00  0.000E+00  1.03987E+03  2.288E+00  5.529E+01  5.593E-01  7.962E-01
   1   13    8     7     2    1.4866E+02  1.8180E+00   1.4685E+02  0.000E+00  0.000E+00  0.000E+00  1.03478E+03  2.279E+00  5.526E+01  6.148E-01  9.857E-01
   1   13    7     7     3    1.4685E+02  1.4223E+00   1.4542E+02  0.000E+00  0.000E+00  0.000E+00  1.02969E+03  2.271E+00  5.522E+01  5.585E-01  8.489E-01
   1   13    6     8     1    1.5428E+02  7.7631E-01   1.5351E+02  0.000E+00  0.000E+00  0.000E+00  1.02472E+03  2.844E+00  4.124E+01  4.202E-01  6.158E-01
   1   13    5     8     2    1.5351E+02  5.3113E-02   1.5345E+02  0.000E+00  0.000E+00  0.000E+00  1.01847E+03  2.841E+00  4.120E+01  4.198E-01  4.217E-02
   1   13    4     8     3    1.5345E+02 -2.9723E+00   1.5642E+02  0.000E+00  0.000E+00  0.000E+00  1.01223E+03  2.851E+00  4.134E+01  4.213E+00 -2.352E-01
   1   13    3     8     4    1.5642E+02 -4.0228E+00   1.6045E+02  0.000E+00  0.000E+00  0.000E+00  1.00600E+03  2.875E+00  4.169E+01  4.248E+00 -3.156E-01
   1   13    2     8     5    1.6045E+02 -2.9433E+00   1.6339E+02  0.000E+00  0.000E+00  0.000E+00  9.99774E+02  2.899E+00  4.203E+01  4.283E+00 -2.291E-01
   1   13    1     8     6    1.6339E+02 -2.2545E+00   1.6565E+02  0.000E+00  0.000E+00  0.000E+00  9.94791E+02  2.916E+00  4.228E+01  2.585E+00 -2.907E-01
   1    8    6     9     1    5.0879E+01  0.0000E+00   5.0879E+01  0.000E+00  0.000E+00  0.000E+00  1.08476E+03  6.014E+00  4.000E+00  0.000E+00  3.005E+00
   1    8    5     9     2    5.0879E+01  0.0000E+00   5.0879E+01  0.000E+00  0.000E+00  0.000E+00  1.08426E+03  6.014E+00  4.000E+00  0.000E+00  3.005E+00



 UBDSV3 SAVING "           GW ET" ON UNIT  61 AT TIME STEP 10, STRESS PERIOD   8
 UBDSV3 SAVING "    UZF RECHARGE" ON UNIT  61 AT TIME STEP 10, STRESS PERIOD   8
 UBDSV3 SAVING " SURFACE LEAKAGE" ON UNIT  61 AT TIME STEP 10, STRESS PERIOD   8
 UBDSV3 SAVING "       HORT+DUNN" ON UNIT  61 AT TIME STEP 10, STRESS PERIOD   8
 UBDSV3 SAVING "  STORAGE CHANGE" ON UNIT  61 AT TIME STEP 10, STRESS PERIOD   8


UNSATURATED ZONE PACKAGE VOLUMETRIC BUDGET FOR  TIME STEP    10 STRESS PERIOD    8
  ------------------------------------------------------------------------------



     CUMULATIVE VOLUMES      L**3       RATES FOR THIS TIME STEP      L**3/T
     ------------------                 ------------------------

           IN:                                      IN:
           ---                                      ---
        INFILTRATION =   237086194.3528          INFILTRATION =          64.6451

          OUT:                                     OUT:
          ----                                     ----
              UZF ET =   192525654.0308                UZF ET =          64.1075
        UZF RECHARGE =       73224.0000          UZF RECHARGE =       0.0000E+00

            IN - OUT =    44487316.3220              IN - OUT =           0.5376

          STORAGE:                                 STORAGE:
          --------                                 --------
      STORAGE CHANGE =    44487313.2664        STORAGE CHANGE =           0.5376

 PERCENT DISCREPANCY IS DIFFERENCE BETWEEN IN-OUT MINUS CHANGE IN STORAGE
 DIVIDED BY THE AVERAGE OF IN AND OUT TIMES 100

 PERCENT DISCREPANCY =           0.00     PERCENT DISCREPANCY =           0.00






 

            AG WELLS      PERIOD    8   STEP  10
 AG WELL      1   LAYER   1   ROW     6   COL     4   RATE    -1.55966    
 AG WELL      2   LAYER   1   ROW     6   COL     5   RATE    -1.55966    
 AG WELL      3   LAYER   1   ROW     7   COL     4   RATE    -1.55966    
 AG WELL      4   LAYER   1   ROW     7   COL     5   RATE    -1.55966    
 AG WELL      5   LAYER   1   ROW     8   COL     4   RATE    -1.55966    
 AG WELL      6   LAYER   1   ROW     8   COL     5   RATE    -1.55966    
 
 

   DIVERSION SEGMENTS     PERIOD    8   STEP  10
 SEGMENT      9   RATE     50.8787    
 
 

        SW IRRIGATION     PERIOD    8   STEP  10
 SEGMENT      9   ROW     6   COL     4   RATE     8.47995    
 SEGMENT      9   ROW     6   COL     5   RATE     8.47995    
 SEGMENT      9   ROW     7   COL     4   RATE     8.47995    
 SEGMENT      9   ROW     7   COL     5   RATE     8.47995    
 SEGMENT      9   ROW     8   COL     4   RATE     8.47995    
 SEGMENT      9   ROW     8   COL     5   RATE     8.47995    
 
 

        GW IRRIGATION     PERIOD    8   STEP  10
 AG WELL      1   ROW     6   COL     4   RATE     1.55966    
 AG WELL      2   ROW     6   COL     5   RATE     1.55966    
 AG WELL      3   ROW     7   COL     4   RATE     1.55966    
 AG WELL      4   ROW     7   COL     5   RATE     1.55966    
 AG WELL      5   ROW     8   COL     4   RATE     1.55966    
 AG WELL      6   ROW     8   COL     5   RATE     1.55966    
 
1
  VOLUMETRIC BUDGET FOR AGRICULTURAL FIELDS AT  END OF TIME STEP   10, STRESS PERIOD   8
  ------------------------------------------------------------------------------

     CUMULATIVE VOLUMES      L**3       RATES FOR THIS TIME STEP      L**3/T
     ------------------                 ------------------------

           IN:                                      IN:
           ---                                      ---
               AG WELLS  =    31801346.0000                 AG WELLS  =           9.3580
      DIVERSION SEGMENTS =   131841560.0000        DIVERSION SEGMENTS =          50.8787
           GW IRRIGATION =           0.0000             GW IRRIGATION =           0.0000
           SW IRRIGATION =           0.0000             SW IRRIGATION =           0.0000
        SYSTEM LOSSES GW =           0.0000          SYSTEM LOSSES GW =           0.0000
        SYSTEM LOSSES SW =           0.0000          SYSTEM LOSSES SW =           0.0000

                TOTAL IN =   163642912.0000                  TOTAL IN =          60.2366

          OUT:                                     OUT:
          ----                                     ----
               AG WELLS  =           0.0000                 AG WELLS  =           0.0000
      DIVERSION SEGMENTS =           0.0000        DIVERSION SEGMENTS =           0.0000
           GW IRRIGATION =    31801346.0000             GW IRRIGATION =           9.3580
           SW IRRIGATION =   131844176.0000             SW IRRIGATION =          50.8797
        SYSTEM LOSSES GW =           0.0000          SYSTEM LOSSES GW =           0.0000
        SYSTEM LOSSES SW =           0.0000          SYSTEM LOSSES SW =           0.0000

               TOTAL OUT =   163645520.0000                 TOTAL OUT =          60.2376

                IN - OUT =       -2608.0000                  IN - OUT =      -1.0147E-03

     PERCENT DISCREPANCY =          -0.00         PERCENT DISCREPANCY =          -0.00



1
  VOLUMETRIC BUDGET FOR ENTIRE MODEL AT END OF TIME STEP   10, STRESS PERIOD   8
  ------------------------------------------------------------------------------

     CUMULATIVE VOLUMES      L**3       RATES FOR THIS TIME STEP      L**3/T
     ------------------                 ------------------------

           IN:                                      IN:
           ---                                      ---
             STORAGE     =    45568708.0000               STORAGE     =          10.8851
       CONSTANT HEAD     =           0.0000         CONSTANT HEAD     =           0.0000
     HEAD DEP BOUNDS     =     4783869.0000       HEAD DEP BOUNDS     =           0.2858
      STREAM LEAKAGE     =   204987840.0000        STREAM LEAKAGE     =          12.0590
        UZF RECHARGE     =       73223.9531          UZF RECHARGE     =           0.0000
               GW ET     =           0.0000                 GW ET     =           0.0000
     SURFACE LEAKAGE     =           0.0000       SURFACE LEAKAGE     =           0.0000
           AG WELLS      =           0.0000             AG WELLS      =           0.0000

                TOTAL IN =   255413632.0000                  TOTAL IN =          23.2298

          OUT:                                     OUT:
          ----                                     ----
             STORAGE     =    38822040.0000               STORAGE     =           1.2481
       CONSTANT HEAD     =           0.0000         CONSTANT HEAD     =           0.0000
     HEAD DEP BOUNDS     =     4889046.0000       HEAD DEP BOUNDS     =           0.2912
      STREAM LEAKAGE     =   178410064.0000        STREAM LEAKAGE     =          12.3325
        UZF RECHARGE     =           0.0000          UZF RECHARGE     =           0.0000
               GW ET     =     1494030.3750                 GW ET     =           0.0000
     SURFACE LEAKAGE     =           0.0000       SURFACE LEAKAGE     =           0.0000
           AG WELLS      =    31801346.0000             AG WELLS      =           9.3580

               TOTAL OUT =   255416528.0000                 TOTAL OUT =          23.2298

                IN - OUT =       -2896.0000                  IN - OUT =       1.1444E-05

     PERCENT DISCREPANCY =          -0.00         PERCENT DISCREPANCY =           0.00






         TIME SUMMARY AT END OF TIME STEP   10 IN STRESS PERIOD    8
                    SECONDS     MINUTES      HOURS       DAYS        YEARS
                    -----------------------------------------------------------
   TIME STEP LENGTH  87667.      1461.1      24.352      1.0147     2.77799E-03
 STRESS PERIOD TIME 8.76667E+05  14611.      243.52      10.147     2.77799E-02
         TOTAL TIME 1.67431E+07 2.79052E+05  4650.9      193.79     0.53056    
1
 
 SOLVING FOR HEAD 
                                                   Max.-Head-Change                         Max.-Flux-Residual
  Residual-Control   Outer-Iter.   Inner-Iter.     Column Row Layer    Maximum-Head-Change  Column Row Layer    Maximum-Flux-Residual          L2-NORM 
          0                 1           2             5    8     1       0.2525525905E-01       5    8    1         0.1385506460E+01      0.3399334112E+01
          0                 2           2             4    7     1      -0.2114540238E+00       5    8    1        -0.1144582168E+02      0.2801888472E+02
          0                 3           2             4    7     1       0.1439898188E-01       5    6    1         0.8010219747E+00      0.1964005250E+01
          0                 4           2             4    7     1      -0.5729501719E-03       5    6    1        -0.3275299085E-01      0.8053824732E-01
          0                 5           1             4    7     1       0.7064721929E-05       5    6    1         0.4144759396E-03      0.1063685456E-02

    ------------------------------------------------
       NWT REQUIRED            5 OUTER ITERATIONS 
       AND A TOTAL OF          9 INNER ITERATIONS.
    ------------------------------------------------

 NO OUTPUT CONTROL FOR STRESS PERIOD    8   TIME STEP   11
 
 SOLVING FOR HEAD 
                                                   Max.-Head-Change                         Max.-Flux-Residual
  Residual-Control   Outer-Iter.   Inner-Iter.     Column Row Layer    Maximum-Head-Change  Column Row Layer    Maximum-Flux-Residual          L2-NORM 
          0                 1           2             5    8     1       0.2989668733E-01       5    8    1         0.1640334531E+01      0.3933828713E+01
          0                 2           2             4    7     1      -0.9445991035E-01       5    8    1        -0.5183754816E+01      0.1265404771E+02
          0                 3           2             4    7     1       0.6913800623E-01       5    8    1         0.3822791550E+01      0.9382012917E+01
          0                 4           2             4    7     1      -0.2751095385E-02       5    8    1        -0.1563183477E+00      0.4059377030E+00
          0                 5           2             7   13     1       0.1529203901E-03       7   13    1         0.8760484718E-02      0.1023157735E-01
          0                 6           1             7   13     1      -0.6073184263E-05       7   13    1        -0.3575491396E-03      0.3658376697E-03

    ------------------------------------------------
       NWT REQUIRED            6 OUTER ITERATIONS 
       AND A TOTAL OF         11 INNER ITERATIONS.
    ------------------------------------------------

 NO OUTPUT CONTROL FOR STRESS PERIOD    8   TIME STEP   12
 
 SOLVING FOR HEAD 
                                                   Max.-Head-Change                         Max.-Flux-Residual
  Residual-Control   Outer-Iter.   Inner-Iter.     Column Row Layer    Maximum-Head-Change  Column Row Layer    Maximum-Flux-Residual          L2-NORM 
          0                 1           2             5    8     1       0.2916198695E-01       5    8    1         0.1598841109E+01      0.3888975170E+01
          0                 2           2             4    7     1      -0.2116491996E+00       5    8    1        -0.1146726066E+02      0.2806188914E+02
          0                 3           2             4    7     1       0.1441227455E-01       5    6    1         0.8025271469E+00      0.1966964434E+01
          0                 4           2             4    7     1      -0.5734790899E-03       5    6    1        -0.3281528471E-01      0.8065447638E-01
          0                 5           1             4    7     1       0.7071243881E-05       5    6    1         0.4153151522E-03      0.1064150397E-02

    ------------------------------------------------
       NWT REQUIRED            5 OUTER ITERATIONS 
       AND A TOTAL OF          9 INNER ITERATIONS.
    ------------------------------------------------

 NO OUTPUT CONTROL FOR STRESS PERIOD    8   TIME STEP   13
 
 SOLVING FOR HEAD 
                                                   Max.-Head-Change                         Max.-Flux-Residual
  Residual-Control   Outer-Iter.   Inner-Iter.     Column Row Layer    Maximum-Head-Change  Column Row Layer    Maximum-Flux-Residual          L2-NORM 
          0                 1           2             5    8     1       0.3361565270E-01       5    8    1         0.1843238474E+01      0.4407572761E+01
          0                 2           2             5    7     1      -0.9470898568E-01       5    8    1        -0.5204045885E+01      0.1269574865E+02
          0                 3           2             4    7     1       0.6915157161E-01       5    8    1         0.3824214919E+01      0.9384966467E+01
          0                 4           2             4    7     1      -0.2751635125E-02       5    8    1        -0.1563771615E+00      0.4058359335E+00
          0                 5           2             7   13     1       0.1520394576E-03       7   13    1         0.8709518243E-02      0.1018899378E-01
          0                 6           1             7   13     1      -0.6045268524E-05       7   13    1        -0.3558572162E-03      0.3641616593E-03

    ------------------------------------------------
       NWT REQUIRED            6 OUTER ITERATIONS 
       AND A TOTAL OF         11 INNER ITERATIONS.
    ------------------------------------------------

 NO OUTPUT CONTROL FOR STRESS PERIOD    8   TIME STEP   14
 
 SOLVING FOR HEAD 
                                                   Max.-Head-Change                         Max.-Flux-Residual
  Residual-Control   Outer-Iter.   Inner-Iter.     Column Row Layer    Maximum-Head-Change  Column Row Layer    Maximum-Flux-Residual          L2-NORM 
          0                 1           2             5    8     1       0.3270684716E-01       5    8    1         0.1792086007E+01      0.4341923564E+01
          0                 2           2             4    7     1      -0.2118476780E+00       5    8    1        -0.1148658577E+02      0.2810198213E+02
          0                 3           2             4    7     1       0.1442579172E-01       5    6    1         0.8038886348E+00      0.1969724533E+01
          0                 4           2             4    7     1      -0.5740169426E-03       5    6    1        -0.3287161310E-01      0.8076316793E-01
          0                 5           1             4    7     1       0.7077875832E-05       5    6    1         0.4160727080E-03      0.1064680395E-02

    ------------------------------------------------
       NWT REQUIRED            5 OUTER ITERATIONS 
       AND A TOTAL OF          9 INNER ITERATIONS.
    ------------------------------------------------

 OUTPUT CONTROL FOR STRESS PERIOD    8   TIME STEP   15
    PRINT BUDGET
    SAVE BUDGET
 UBDSV1 SAVING "         STORAGE" ON UNIT 102 AT TIME STEP 15, STRESS PERIOD   8
 UBDSV2 SAVING "   CONSTANT HEAD" ON UNIT 102 AT TIME STEP 15, STRESS PERIOD   8
 UBDSV1 SAVING "FLOW RIGHT FACE " ON UNIT 102 AT TIME STEP 15, STRESS PERIOD   8
 UBDSV1 SAVING "FLOW FRONT FACE " ON UNIT 102 AT TIME STEP 15, STRESS PERIOD   8

  HEAD DEP BOUNDS   PERIOD    8   STEP    15
 BOUNDARY      1   LAYER   1   ROW    13   COL     1   RATE   -0.290347    
 BOUNDARY      2   LAYER   1   ROW    14   COL     9   RATE    0.285762    



 STREAM LISTING     PERIOD      8   STEP       15

 LAYER ROW COL. STREAM  RCH.  FLOW INTO     FLOW TO   FLOW OUT OF   OVRLND.     DIRECT     STREAM       STREAM     STREAM     STREAM   STREAMBED  STREAMBED
                SEG.NO.  NO.  STRM. RCH.    AQUIFER    STRM. RCH.    RUNOFF     PRECIP       ET          HEAD       DEPTH      WIDTH   CONDCTNC.   GRADIENT

   1    1    1     1     1    5.6250E+01  3.5874E-01   5.5891E+01  0.000E+00  0.000E+00  0.000E+00  1.09453E+03  1.479E+00  1.780E+01  8.010E-02  1.493E+00
   1    2    2     1     2    5.5891E+01  5.5550E-01   5.5335E+01  0.000E+00  0.000E+00  0.000E+00  1.08953E+03  1.473E+00  1.774E+01  1.242E-01  1.491E+00
   1    3    3     1     3    5.5335E+01  4.7368E-01   5.4862E+01  0.000E+00  0.000E+00  0.000E+00  1.08389E+03  1.467E+00  1.767E+01  1.060E-01  1.489E+00
   1    3    4     1     4    5.4862E+01  4.3613E-01   5.4426E+01  0.000E+00  0.000E+00  0.000E+00  1.07887E+03  1.461E+00  1.762E+01  9.777E-02  1.487E+00
   1    4    5     2     1    5.2426E+01  3.8056E-01   5.2045E+01  0.000E+00  0.000E+00  0.000E+00  1.07381E+03  1.879E+00  1.200E+01  7.800E-02  1.626E+00
   1    5    6     2     2    5.2045E+01  2.9230E-01   5.1753E+01  0.000E+00  0.000E+00  0.000E+00  1.06838E+03  1.872E+00  1.200E+01  6.000E-02  1.624E+00
   1    6    6     2     3    5.1753E+01  2.9192E-01   5.1461E+01  0.000E+00  0.000E+00  0.000E+00  1.06366E+03  1.865E+00  1.200E+01  6.000E-02  1.622E+00
   1    7    6     2     4    5.1461E+01  2.9154E-01   5.1169E+01  0.000E+00  0.000E+00  0.000E+00  1.05893E+03  1.859E+00  1.200E+01  6.000E-02  1.620E+00
   1    8    6     2     5    5.1169E+01  2.9116E-01   5.0878E+01  0.000E+00  0.000E+00  0.000E+00  1.05421E+03  1.853E+00  1.200E+01  6.000E-02  1.618E+00
   1    3    5     3     1    2.0000E+00  2.8252E-01   1.7175E+00  0.000E+00  0.000E+00  0.000E+00  1.07555E+03  1.909E+00  9.636E+00  7.227E-02  1.955E+00
   1    3    6     3     2    1.7175E+00  2.4905E-01   1.4684E+00  0.000E+00  0.000E+00  0.000E+00  1.07264E+03  1.727E+00  8.909E+00  6.682E-02  1.864E+00
   1    3    7     3     3    1.4684E+00  1.9718E-01   1.2712E+00  0.000E+00  0.000E+00  0.000E+00  1.06987E+03  1.555E+00  8.218E+00  5.547E-02  1.777E+00
   1    4    8     3     4    1.2712E+00  2.2567E-01   1.0456E+00  0.000E+00  0.000E+00  0.000E+00  1.06682E+03  1.364E+00  7.455E+00  6.709E-02  1.682E+00
   1    5    8     3     5    1.0456E+00  1.5790E-01   8.8768E-01  0.000E+00  0.000E+00  0.000E+00  1.06362E+03  1.164E+00  6.655E+00  4.991E-02  1.582E+00
   1    6    8     3     6    8.8768E-01  5.5980E-02   8.3170E-01  0.000E+00  0.000E+00  0.000E+00  1.06158E+03  1.036E+00  6.145E+00  1.844E-02  1.518E+00
   1    5   10     4     1    1.0000E+01  9.0919E-02   9.9091E+00  0.000E+00  0.000E+00  0.000E+00  1.07836E+03  6.368E-01  1.000E+01  2.500E-02  1.212E+00
   1    5    9     4     2    9.9091E+00  1.8158E-01   9.7275E+00  0.000E+00  0.000E+00  0.000E+00  1.07154E+03  6.315E-01  1.000E+01  5.000E-02  1.211E+00
   1    6    8     4     3    9.7275E+00  1.2689E-01   9.6006E+00  0.000E+00  0.000E+00  0.000E+00  1.06381E+03  6.256E-01  1.000E+01  3.500E-02  1.209E+00
   1    6    8     5     1    1.0432E+01  2.2686E-01   1.0205E+01  0.000E+00  0.000E+00  0.000E+00  1.05868E+03  6.790E-01  1.542E+01  6.166E-02  1.226E+00
   1    7    7     5     2    1.0205E+01  2.7894E-01   9.9265E+00  0.000E+00  0.000E+00  0.000E+00  1.05417E+03  6.732E-01  1.519E+01  7.594E-02  1.224E+00
   1    8    7     5     3    9.9265E+00  1.9221E-01   9.7343E+00  0.000E+00  0.000E+00  0.000E+00  1.04992E+03  6.676E-01  1.497E+01  5.241E-02  1.223E+00
   1    8    6     5     4    9.7343E+00  1.3577E-01   9.5985E+00  0.000E+00  0.000E+00  0.000E+00  1.04691E+03  6.637E-01  1.482E+01  3.706E-02  1.221E+00
   1    9    6     6     1    9.5985E+00  2.2097E-01   9.3776E+00  0.000E+00  0.000E+00  0.000E+00  1.04341E+03  6.828E-01  1.200E+01  6.000E-02  1.228E+00
   1   10    7     6     2    9.3776E+00  2.2039E-01   9.1572E+00  0.000E+00  0.000E+00  0.000E+00  1.03885E+03  6.732E-01  1.200E+01  6.000E-02  1.224E+00
   1   11    7     6     3    9.1572E+00  2.1981E-01   8.9374E+00  0.000E+00  0.000E+00  0.000E+00  1.03430E+03  6.636E-01  1.200E+01  6.000E-02  1.221E+00
   1   12    7     6     4    8.9374E+00  2.1923E-01   8.7181E+00  0.000E+00  0.000E+00  0.000E+00  1.02974E+03  6.539E-01  1.200E+01  6.000E-02  1.218E+00
   1   13    7     6     5    8.7181E+00 -1.3763E-01   8.8558E+00  0.000E+00  0.000E+00  0.000E+00  1.02656E+03  6.520E-01  1.200E+01  2.400E-01 -1.911E-01
   1   14    9     7     1    1.5000E+02  1.3359E+00   1.4866E+02  0.000E+00  0.000E+00  0.000E+00  1.03987E+03  2.288E+00  5.529E+01  5.593E-01  7.961E-01
   1   13    8     7     2    1.4866E+02  1.8182E+00   1.4685E+02  0.000E+00  0.000E+00  0.000E+00  1.03478E+03  2.279E+00  5.526E+01  6.148E-01  9.858E-01
   1   13    7     7     3    1.4685E+02  1.4271E+00   1.4542E+02  0.000E+00  0.000E+00  0.000E+00  1.02969E+03  2.271E+00  5.522E+01  5.585E-01  8.518E-01
   1   13    6     8     1    1.5427E+02  7.8058E-01   1.5349E+02  0.000E+00  0.000E+00  0.000E+00  1.02472E+03  2.844E+00  4.124E+01  4.202E-01  6.192E-01
   1   13    5     8     2    1.5349E+02  5.7344E-02   1.5344E+02  0.000E+00  0.000E+00  0.000E+00  1.01847E+03  2.841E+00  4.120E+01  4.198E-01  4.553E-02
   1   13    4     8     3    1.5344E+02 -2.8967E+00   1.5633E+02  0.000E+00  0.000E+00  0.000E+00  1.01223E+03  2.851E+00  4.134E+01  4.212E+00 -2.292E-01
   1   13    3     8     4    1.5633E+02 -3.9499E+00   1.6028E+02  0.000E+00  0.000E+00  0.000E+00  1.00600E+03  2.874E+00  4.168E+01  4.247E+00 -3.100E-01
   1   13    2     8     5    1.6028E+02 -2.8444E+00   1.6313E+02  0.000E+00  0.000E+00  0.000E+00  9.99772E+02  2.897E+00  4.201E+01  4.281E+00 -2.215E-01
   1   13    1     8     6    1.6313E+02 -2.2000E+00   1.6533E+02  0.000E+00  0.000E+00  0.000E+00  9.94789E+02  2.914E+00  4.226E+01  2.584E+00 -2.838E-01
   1    8    6     9     1    5.0878E+01  0.0000E+00   5.0878E+01  0.000E+00  0.000E+00  0.000E+00  1.08476E+03  6.014E+00  4.000E+00  0.000E+00  3.005E+00
   1    8    5     9     2    5.0878E+01  0.0000E+00   5.0878E+01  0.000E+00  0.000E+00  0.000E+00  1.08426E+03  6.014E+00  4.000E+00  0.000E+00  3.005E+00



 UBDSV3 SAVING "           GW ET" ON UNIT  61 AT TIME STEP 15, STRESS PERIOD   8
 UBDSV3 SAVING "    UZF RECHARGE" ON UNIT  61 AT TIME STEP 15, STRESS PERIOD   8
 UBDSV3 SAVING " SURFACE LEAKAGE" ON UNIT  61 AT TIME STEP 15, STRESS PERIOD   8
 UBDSV3 SAVING "       HORT+DUNN" ON UNIT  61 AT TIME STEP 15, STRESS PERIOD   8
 UBDSV3 SAVING "  STORAGE CHANGE" ON UNIT  61 AT TIME STEP 15, STRESS PERIOD   8


UNSATURATED ZONE PACKAGE VOLUMETRIC BUDGET FOR  TIME STEP    15 STRESS PERIOD    8
  ------------------------------------------------------------------------------



     CUMULATIVE VOLUMES      L**3       RATES FOR THIS TIME STEP      L**3/T
     ------------------                 ------------------------

           IN:                                      IN:
           ---                                      ---
        INFILTRATION =   280804038.1995          INFILTRATION =         123.1308

          OUT:                                     OUT:
          ----                                     ----
              UZF ET =   220626106.8774                UZF ET =          64.1075
        UZF RECHARGE =       73224.0000          UZF RECHARGE =       0.0000E+00

            IN - OUT =    60104707.3220              IN - OUT =          59.0233

          STORAGE:                                 STORAGE:
          --------                                 --------
      STORAGE CHANGE =    60104703.0563        STORAGE CHANGE =          59.0233

 PERCENT DISCREPANCY IS DIFFERENCE BETWEEN IN-OUT MINUS CHANGE IN STORAGE
 DIVIDED BY THE AVERAGE OF IN AND OUT TIMES 100

 PERCENT DISCREPANCY =           0.00     PERCENT DISCREPANCY =           0.00






 

            AG WELLS      PERIOD    8   STEP  15
 AG WELL      1   LAYER   1   ROW     6   COL     4   RATE    -11.3074    
 AG WELL      2   LAYER   1   ROW     6   COL     5   RATE    -11.3074    
 AG WELL      3   LAYER   1   ROW     7   COL     4   RATE    -11.3074    
 AG WELL      4   LAYER   1   ROW     7   COL     5   RATE    -11.3074    
 AG WELL      5   LAYER   1   ROW     8   COL     4   RATE    -11.3074    
 AG WELL      6   LAYER   1   ROW     8   COL     5   RATE    -11.3074    
 
 

   DIVERSION SEGMENTS     PERIOD    8   STEP  15
 SEGMENT      9   RATE     50.8780    
 
 

        SW IRRIGATION     PERIOD    8   STEP  15
 SEGMENT      9   ROW     6   COL     4   RATE     8.47984    
 SEGMENT      9   ROW     6   COL     5   RATE     8.47984    
 SEGMENT      9   ROW     7   COL     4   RATE     8.47984    
 SEGMENT      9   ROW     7   COL     5   RATE     8.47984    
 SEGMENT      9   ROW     8   COL     4   RATE     8.47984    
 SEGMENT      9   ROW     8   COL     5   RATE     8.47984    
 
 

        GW IRRIGATION     PERIOD    8   STEP  15
 AG WELL      1   ROW     6   COL     4   RATE     11.3074    
 AG WELL      2   ROW     6   COL     5   RATE     11.3074    
 AG WELL      3   ROW     7   COL     4   RATE     11.3074    
 AG WELL      4   ROW     7   COL     5   RATE     11.3074    
 AG WELL      5   ROW     8   COL     4   RATE     11.3074    
 AG WELL      6   ROW     8   COL     5   RATE     11.3074    
 
1
  VOLUMETRIC BUDGET FOR AGRICULTURAL FIELDS AT  END OF TIME STEP   15, STRESS PERIOD   8
  ------------------------------------------------------------------------------

     CUMULATIVE VOLUMES      L**3       RATES FOR THIS TIME STEP      L**3/T
     ------------------                 ------------------------

           IN:                                      IN:
           ---                                      ---
               AG WELLS  =    51285200.0000                 AG WELLS  =          67.8442
      DIVERSION SEGMENTS =   154143136.0000        DIVERSION SEGMENTS =          50.8780
           GW IRRIGATION =           0.0000             GW IRRIGATION =           0.0000
           SW IRRIGATION =           0.0000             SW IRRIGATION =           0.0000
        SYSTEM LOSSES GW =           0.0000          SYSTEM LOSSES GW =           0.0000
        SYSTEM LOSSES SW =           0.0000          SYSTEM LOSSES SW =           0.0000

                TOTAL IN =   205428336.0000                  TOTAL IN =         118.7223

          OUT:                                     OUT:
          ----                                     ----
               AG WELLS  =           0.0000                 AG WELLS  =           0.0000
      DIVERSION SEGMENTS =           0.0000        DIVERSION SEGMENTS =           0.0000
           GW IRRIGATION =    51285200.0000             GW IRRIGATION =          67.8442
           SW IRRIGATION =   154146224.0000             SW IRRIGATION =          50.8790
        SYSTEM LOSSES GW =           0.0000          SYSTEM LOSSES GW =           0.0000
        SYSTEM LOSSES SW =           0.0000          SYSTEM LOSSES SW =           0.0000

               TOTAL OUT =   205431424.0000                 TOTAL OUT =         118.7233

                IN - OUT =       -3088.0000                  IN - OUT =      -1.0147E-03

     PERCENT DISCREPANCY =          -0.00         PERCENT DISCREPANCY =          -0.00



1
  VOLUMETRIC BUDGET FOR ENTIRE MODEL AT END OF TIME STEP   15, STRESS PERIOD   8
  ------------------------------------------------------------------------------

     CUMULATIVE VOLUMES      L**3       RATES FOR THIS TIME STEP      L**3/T
     ------------------                 ------------------------

           IN:                                      IN:
           ---                                      ---
             STORAGE     =    65650444.0000               STORAGE     =          68.9498
       CONSTANT HEAD     =           0.0000         CONSTANT HEAD     =           0.0000
     HEAD DEP BOUNDS     =     4909129.0000       HEAD DEP BOUNDS     =           0.2858
      STREAM LEAKAGE     =   210277296.0000        STREAM LEAKAGE     =          12.0725
        UZF RECHARGE     =       73223.9531          UZF RECHARGE     =           0.0000
               GW ET     =           0.0000                 GW ET     =           0.0000
     SURFACE LEAKAGE     =           0.0000       SURFACE LEAKAGE     =           0.0000
           AG WELLS      =           0.0000             AG WELLS      =           0.0000

                TOTAL IN =   280910080.0000                  TOTAL IN =          81.3080

          OUT:                                     OUT:
          ----                                     ----
             STORAGE     =    39385176.0000               STORAGE     =           1.1448
       CONSTANT HEAD     =           0.0000         CONSTANT HEAD     =           0.0000
     HEAD DEP BOUNDS     =     5016458.5000       HEAD DEP BOUNDS     =           0.2903
      STREAM LEAKAGE     =   183732112.0000        STREAM LEAKAGE     =          12.0286
        UZF RECHARGE     =           0.0000          UZF RECHARGE     =           0.0000
               GW ET     =     1494030.3750                 GW ET     =           0.0000
     SURFACE LEAKAGE     =           0.0000       SURFACE LEAKAGE     =           0.0000
           AG WELLS      =    51285200.0000             AG WELLS      =          67.8442

               TOTAL OUT =   280912960.0000                 TOTAL OUT =          81.3080

                IN - OUT =       -2880.0000                  IN - OUT =       4.5776E-05

     PERCENT DISCREPANCY =          -0.00         PERCENT DISCREPANCY =           0.00






         TIME SUMMARY AT END OF TIME STEP   15 IN STRESS PERIOD    8
                    SECONDS     MINUTES      HOURS       DAYS        YEARS
                    -----------------------------------------------------------
   TIME STEP LENGTH  87667.      1461.1      24.352      1.0147     2.77799E-03
 STRESS PERIOD TIME 1.31500E+06  21917.      365.28      15.220     4.16698E-02
         TOTAL TIME 1.71814E+07 2.86357E+05  4772.6      198.86     0.54445    
1
 
 SOLVING FOR HEAD 
                                                   Max.-Head-Change                         Max.-Flux-Residual
  Residual-Control   Outer-Iter.   Inner-Iter.     Column Row Layer    Maximum-Head-Change  Column Row Layer    Maximum-Flux-Residual          L2-NORM 
          0                 1           2             5    8     1       0.3699617474E-01       5    8    1         0.2027366059E+01      0.4845144250E+01
          0                 2           2             5    7     1      -0.9498469042E-01       5    8    1        -0.5222459308E+01      0.1273488585E+02
          0                 3           2             4    7     1       0.6916542451E-01       5    8    1         0.3827142418E+01      0.9388400632E+01
          0                 4           2             4    7     1      -0.2752169604E-02       5    6    1        -0.1564196015E+00      0.4048711155E+00
          0                 5           2             7   13     1       0.1511955535E-03       7   13    1         0.8661195258E-02      0.1014501132E-01
          0                 6           1             7   13     1      -0.6012721347E-05       7   13    1        -0.3539371446E-03      0.3623167355E-03

    ------------------------------------------------
       NWT REQUIRED            6 OUTER ITERATIONS 
       AND A TOTAL OF         11 INNER ITERATIONS.
    ------------------------------------------------

 NO OUTPUT CONTROL FOR STRESS PERIOD    8   TIME STEP   16
 
 SOLVING FOR HEAD 
                                                   Max.-Head-Change                         Max.-Flux-Residual
  Residual-Control   Outer-Iter.   Inner-Iter.     Column Row Layer    Maximum-Head-Change  Column Row Layer    Maximum-Flux-Residual          L2-NORM 
          0                 1           2             5    8     1       0.3593448110E-01       5    8    1         0.1967743948E+01      0.4761335439E+01
          0                 2           2             4    7     1      -0.2120497098E+00       5    8    1        -0.1150415217E+02      0.2813964504E+02
          0                 3           2             4    7     1       0.1443960356E-01       5    8    1         0.8123009575E+00      0.1975295452E+01
          0                 4           2             4    7     1      -0.5745664284E-03       5    8    1        -0.3321833962E-01      0.8098719683E-01
          0                 5           1             4    7     1       0.7084651609E-05       5    8    1         0.4206473682E-03      0.1066596443E-02

    ------------------------------------------------
       NWT REQUIRED            5 OUTER ITERATIONS 
       AND A TOTAL OF          9 INNER ITERATIONS.
    ------------------------------------------------

 NO OUTPUT CONTROL FOR STRESS PERIOD    8   TIME STEP   17
 
 SOLVING FOR HEAD 
                                                   Max.-Head-Change                         Max.-Flux-Residual
  Residual-Control   Outer-Iter.   Inner-Iter.     Column Row Layer    Maximum-Head-Change  Column Row Layer    Maximum-Flux-Residual          L2-NORM 
          0                 1           2             5    8     1       0.4012812485E-01       5    8    1         0.2200899006E+01      0.5253726127E+01
          0                 2           2             5    7     1      -0.9524720750E-01       5    8    1        -0.5239806697E+01      0.1277192261E+02
          0                 3           2             4    7     1       0.6917947254E-01       5    8    1         0.3826736100E+01      0.9390359316E+01
          0                 4           2             4    7     1      -0.2752743224E-02       5    8    1        -0.1564689811E+00      0.4056391001E+00
          0                 5           2             7   13     1       0.1503974939E-03       7   13    1         0.8615492231E-02      0.1011117314E-01
          0                 6           1             7   13     1      -0.5981490563E-05       7   13    1        -0.3520999499E-03      0.3603846552E-03

    ------------------------------------------------
       NWT REQUIRED            6 OUTER ITERATIONS 
       AND A TOTAL OF         11 INNER ITERATIONS.
    ------------------------------------------------

 NO OUTPUT CONTROL FOR STRESS PERIOD    8   TIME STEP   18
 
 SOLVING FOR HEAD 
                                                   Max.-Head-Change                         Max.-Flux-Residual
  Residual-Control   Outer-Iter.   Inner-Iter.     Column Row Layer    Maximum-Head-Change  Column Row Layer    Maximum-Flux-Residual          L2-NORM 
          0                 1           2             5    8     1       0.3890040026E-01       5    8    1         0.2131946603E+01      0.5152840323E+01
          0                 2           2             4    7     1      -0.2122537102E+00       5    8    1        -0.1152056693E+02      0.2817525913E+02
          0                 3           2             4    7     1       0.1445346214E-01       5    8    1         0.8063486368E+00      0.1974839473E+01
          0                 4           2             4    7     1      -0.5751178718E-03       5    8    1        -0.3297207091E-01      0.8096471693E-01
          0                 5           1             4    7     1       0.7091451022E-05       5    6    1         0.4173900193E-03      0.1065693310E-02

    ------------------------------------------------
       NWT REQUIRED            5 OUTER ITERATIONS 
       AND A TOTAL OF          9 INNER ITERATIONS.
    ------------------------------------------------

 NO OUTPUT CONTROL FOR STRESS PERIOD    8   TIME STEP   19
 
 SOLVING FOR HEAD 
                                                   Max.-Head-Change                         Max.-Flux-Residual
  Residual-Control   Outer-Iter.   Inner-Iter.     Column Row Layer    Maximum-Head-Change  Column Row Layer    Maximum-Flux-Residual          L2-NORM 
          0                 1           2             5    8     1       0.4304490052E-01       5    8    1         0.2359647492E+01      0.5632893517E+01
          0                 2           2             5    7     1      -0.9549965646E-01       5    8    1        -0.5255681273E+01      0.1280681150E+02
          0                 3           2             4    7     1       0.6919363404E-01       5    8    1         0.3827847331E+01      0.9392818332E+01
          0                 4           2             4    7     1      -0.2753306708E-02       5    8    1        -0.1565147814E+00      0.4055508225E+00
          0                 5           2             7   13     1       0.1496477858E-03       7   13    1         0.8572564284E-02      0.1007589202E-01
          0                 6           1             7   13     1      -0.5959860908E-05       7   13    1        -0.3508305308E-03      0.3594206814E-03

    ------------------------------------------------
       NWT REQUIRED            6 OUTER ITERATIONS 
       AND A TOTAL OF         11 INNER ITERATIONS.
    ------------------------------------------------

 NO OUTPUT CONTROL FOR STRESS PERIOD    8   TIME STEP   20
 
 SOLVING FOR HEAD 
                                                   Max.-Head-Change                         Max.-Flux-Residual
  Residual-Control   Outer-Iter.   Inner-Iter.     Column Row Layer    Maximum-Head-Change  Column Row Layer    Maximum-Flux-Residual          L2-NORM 
          0                 1           2             5    8     1       0.4168767862E-01       5    8    1         0.2283516638E+01      0.5517622120E+01
          0                 2           2             4    7     1      -0.2124586402E+00       5    8    1        -0.1153572367E+02      0.2820889355E+02
          0                 3           2             4    7     1       0.1446741774E-01       5    8    1         0.8074145115E+00      0.1977157607E+01
          0                 4           2             4    7     1      -0.5756731746E-03       5    8    1        -0.3301613823E-01      0.8105645836E-01
          0                 5           1             4    7     1       0.7098297816E-05       5    6    1         0.4179646098E-03      0.1066151470E-02

    ------------------------------------------------
       NWT REQUIRED            5 OUTER ITERATIONS 
       AND A TOTAL OF          9 INNER ITERATIONS.
    ------------------------------------------------

 NO OUTPUT CONTROL FOR STRESS PERIOD    8   TIME STEP   21
 
 SOLVING FOR HEAD 
                                                   Max.-Head-Change                         Max.-Flux-Residual
  Residual-Control   Outer-Iter.   Inner-Iter.     Column Row Layer    Maximum-Head-Change  Column Row Layer    Maximum-Flux-Residual          L2-NORM 
          0                 1           2             5    8     1       0.4571058468E-01       5    8    1         0.2504481542E+01      0.5985136674E+01
          0                 2           2             5    7     1      -0.9574101446E-01       5    8    1        -0.5270164412E+01      0.1283968900E+02
          0                 3           2             4    7     1       0.6920781885E-01       5    8    1         0.3828861164E+01      0.9395134143E+01
          0                 4           2             4    7     1      -0.2753871124E-02       5    8    1        -0.1565565536E+00      0.4054668500E+00
          0                 5           2             7   13     1       0.1489185442E-03       7   13    1         0.8530835699E-02      0.1004111433E-01
          0                 6           1             7   13     1      -0.5922503841E-05       7   13    1        -0.3486343658E-03      0.3571985518E-03

    ------------------------------------------------
       NWT REQUIRED            6 OUTER ITERATIONS 
       AND A TOTAL OF         11 INNER ITERATIONS.
    ------------------------------------------------

 NO OUTPUT CONTROL FOR STRESS PERIOD    8   TIME STEP   22
 
 SOLVING FOR HEAD 
                                                   Max.-Head-Change                         Max.-Flux-Residual
  Residual-Control   Outer-Iter.   Inner-Iter.     Column Row Layer    Maximum-Head-Change  Column Row Layer    Maximum-Flux-Residual          L2-NORM 
          0                 1           2             5    8     1       0.4423942501E-01       5    8    1         0.2422043800E+01      0.5857194489E+01
          0                 2           2             4    7     1      -0.2126633467E+00       5    8    1        -0.1154957614E+02      0.2824062621E+02
          0                 3           2             4    7     1       0.1448135788E-01       5    8    1         0.8083884673E+00      0.1979345046E+01
          0                 4           2             4    7     1      -0.5762278636E-03       5    8    1        -0.3305638575E-01      0.8114303339E-01
          0                 5           1             4    7     1       0.7105138002E-05       5    6    1         0.4184916197E-03      0.1066589577E-02

    ------------------------------------------------
       NWT REQUIRED            5 OUTER ITERATIONS 
       AND A TOTAL OF          9 INNER ITERATIONS.
    ------------------------------------------------

 NO OUTPUT CONTROL FOR STRESS PERIOD    8   TIME STEP   23
 
 SOLVING FOR HEAD 
                                                   Max.-Head-Change                         Max.-Flux-Residual
  Residual-Control   Outer-Iter.   Inner-Iter.     Column Row Layer    Maximum-Head-Change  Column Row Layer    Maximum-Flux-Residual          L2-NORM 
          0                 1           2             5    8     1       0.4815514007E-01       5    8    1         0.2637078726E+01      0.6313184450E+01
          0                 2           2             5    7     1      -0.9597163345E-01       5    8    1        -0.5283423873E+01      0.1287071977E+02
          0                 3           2             4    7     1       0.6922195998E-01       5    8    1         0.3829789340E+01      0.9397318202E+01
          0                 4           2             4    7     1      -0.2754433809E-02       5    8    1        -0.1565947837E+00      0.4053862990E+00
          0                 5           2             7   13     1       0.1482330372E-03       7   13    1         0.8491522782E-02      0.1000845656E-01
          0                 6           1             7   13     1      -0.5895630717E-05       7   13    1        -0.3470455649E-03      0.3556303016E-03

    ------------------------------------------------
       NWT REQUIRED            6 OUTER ITERATIONS 
       AND A TOTAL OF         11 INNER ITERATIONS.
    ------------------------------------------------

 NO OUTPUT CONTROL FOR STRESS PERIOD    8   TIME STEP   24
 
 SOLVING FOR HEAD 
                                                   Max.-Head-Change                         Max.-Flux-Residual
  Residual-Control   Outer-Iter.   Inner-Iter.     Column Row Layer    Maximum-Head-Change  Column Row Layer    Maximum-Flux-Residual          L2-NORM 
          0                 1           2             5    8     1       0.4658340465E-01       5    8    1         0.2549081660E+01      0.6174022077E+01
          0                 2           2             4    7     1      -0.2128669299E+00       5    8    1        -0.1156227969E+02      0.2827060888E+02
          0                 3           2             4    7     1       0.1449522132E-01       5    8    1         0.8092814599E+00      0.1981411998E+01
          0                 4           2             4    7     1      -0.5767795013E-03       5    8    1        -0.3309326945E-01      0.8122504094E-01
          0                 5           1             4    7     1       0.7111939767E-05       5    6    1         0.4189762003E-03      0.1067062878E-02

    ------------------------------------------------
       NWT REQUIRED            5 OUTER ITERATIONS 
       AND A TOTAL OF          9 INNER ITERATIONS.
    ------------------------------------------------

 NO OUTPUT CONTROL FOR STRESS PERIOD    8   TIME STEP   25
 
 SOLVING FOR HEAD 
                                                   Max.-Head-Change                         Max.-Flux-Residual
  Residual-Control   Outer-Iter.   Inner-Iter.     Column Row Layer    Maximum-Head-Change  Column Row Layer    Maximum-Flux-Residual          L2-NORM 
          0                 1           2             5    8     1       0.5040416567E-01       5    8    1         0.2758870797E+01      0.6619443001E+01
          0                 2           2             5    7     1      -0.9619194790E-01       5    8    1        -0.5295602832E+01      0.1290004973E+02
          0                 3           2             4    7     1       0.6923599837E-01       5    8    1         0.3830641881E+01      0.9399381591E+01
          0                 4           2             4    7     1      -0.2754992408E-02       5    8    1        -0.1566298868E+00      0.4053094514E+00
          0                 5           2             7   13     1       0.1475809565E-03       7   13    1         0.8454183002E-02      0.9977946855E-02
          0                 6           1             7   13     1      -0.5868326318E-05       7   13    1        -0.3454383364E-03      0.3541331170E-03

    ------------------------------------------------
       NWT REQUIRED            6 OUTER ITERATIONS 
       AND A TOTAL OF         11 INNER ITERATIONS.
    ------------------------------------------------

 NO OUTPUT CONTROL FOR STRESS PERIOD    8   TIME STEP   26
 
 SOLVING FOR HEAD 
                                                   Max.-Head-Change                         Max.-Flux-Residual
  Residual-Control   Outer-Iter.   Inner-Iter.     Column Row Layer    Maximum-Head-Change  Column Row Layer    Maximum-Flux-Residual          L2-NORM 
          0                 1           2             5    8     1       0.4874322161E-01       5    8    1         0.2665949648E+01      0.6470332905E+01
          0                 2           2             4    7     1      -0.2130686500E+00       5    8    1        -0.1157396626E+02      0.2829898079E+02
          0                 3           2             4    7     1       0.1450895771E-01       5    8    1         0.8101027939E+00      0.1983367664E+01
          0                 4           2             4    7     1      -0.5773260851E-03       5    8    1        -0.3312717658E-01      0.8130260380E-01
          0                 5           1             4    7     1       0.7118679364E-05       5    6    1         0.4194229750E-03      0.1067585500E-02

    ------------------------------------------------
       NWT REQUIRED            5 OUTER ITERATIONS 
       AND A TOTAL OF          9 INNER ITERATIONS.
    ------------------------------------------------

 NO OUTPUT CONTROL FOR STRESS PERIOD    8   TIME STEP   27
 
 SOLVING FOR HEAD 
                                                   Max.-Head-Change                         Max.-Flux-Residual
  Residual-Control   Outer-Iter.   Inner-Iter.     Column Row Layer    Maximum-Head-Change  Column Row Layer    Maximum-Flux-Residual          L2-NORM 
          0                 1           2             5    8     1       0.5247999657E-01       5    8    1         0.2871105311E+01      0.6906036641E+01
          0                 2           2             5    7     1      -0.9640243967E-01       5    8    1        -0.5306826046E+01      0.1292781154E+02
          0                 3           2             4    7     1       0.6924988822E-01       5    8    1         0.3831427521E+01      0.9401334348E+01
          0                 4           2             4    7     1      -0.2755545101E-02       5    8    1        -0.1566622243E+00      0.4052363918E+00
          0                 5           2             7   13     1       0.1469612719E-03       7   13    1         0.8418697516E-02      0.9948332875E-02
          0                 6           1             7   13     1      -0.5844385549E-05       7   13    1        -0.3440287014E-03      0.3525887556E-03

    ------------------------------------------------
       NWT REQUIRED            6 OUTER ITERATIONS 
       AND A TOTAL OF         11 INNER ITERATIONS.
    ------------------------------------------------

 NO OUTPUT CONTROL FOR STRESS PERIOD    8   TIME STEP   28
 
 SOLVING FOR HEAD 
                                                   Max.-Head-Change                         Max.-Flux-Residual
  Residual-Control   Outer-Iter.   Inner-Iter.     Column Row Layer    Maximum-Head-Change  Column Row Layer    Maximum-Flux-Residual          L2-NORM 
          0                 1           2             5    8     1       0.5073990715E-01       5    8    1         0.2773821623E+01      0.6748070398E+01
          0                 2           2             4    7     1      -0.2132678421E+00       5    8    1        -0.1158475323E+02      0.2832586595E+02
          0                 3           2             4    7     1       0.1452252180E-01       5    8    1         0.8108607446E+00      0.1985220429E+01
          0                 4           2             4    7     1      -0.5778658138E-03       5    8    1        -0.3315845132E-01      0.8137608215E-01
          0                 5           1             4    7     1       0.7125334277E-05       5    6    1         0.4198359557E-03      0.1068066692E-02

    ------------------------------------------------
       NWT REQUIRED            5 OUTER ITERATIONS 
       AND A TOTAL OF          9 INNER ITERATIONS.
    ------------------------------------------------

 NO OUTPUT CONTROL FOR STRESS PERIOD    8   TIME STEP   29
 
 SOLVING FOR HEAD 
                                                   Max.-Head-Change                         Max.-Flux-Residual
  Residual-Control   Outer-Iter.   Inner-Iter.     Column Row Layer    Maximum-Head-Change  Column Row Layer    Maximum-Flux-Residual          L2-NORM 
          0                 1           2             5    8     1       0.5440189025E-01       5    8    1         0.2974856983E+01      0.7174832164E+01
          0                 2           2             5    7     1      -0.9660354023E-01       5    8    1        -0.5317200985E+01      0.1295412534E+02
          0                 3           2             4    7     1       0.6926358754E-01       5    8    1         0.3832153781E+01      0.9403184644E+01
          0                 4           2             4    7     1      -0.2756090217E-02       5    8    1        -0.1566921076E+00      0.4051665603E+00
          0                 5           2             7   13     1       0.1463713823E-03       7   13    1         0.8384920065E-02      0.9920242883E-02
          0                 6           1             7   13     1      -0.5821135098E-05       7   13    1        -0.3426611929E-03      0.3514079204E-03

    ------------------------------------------------
       NWT REQUIRED            6 OUTER ITERATIONS 
       AND A TOTAL OF         11 INNER ITERATIONS.
    ------------------------------------------------

 NO OUTPUT CONTROL FOR STRESS PERIOD    8   TIME STEP   30



 STREAM LISTING     PERIOD      8   STEP       30

 LAYER ROW COL. STREAM  RCH.  FLOW INTO     FLOW TO   FLOW OUT OF   OVRLND.     DIRECT     STREAM       STREAM     STREAM     STREAM   STREAMBED  STREAMBED
                SEG.NO.  NO.  STRM. RCH.    AQUIFER    STRM. RCH.    RUNOFF     PRECIP       ET          HEAD       DEPTH      WIDTH   CONDCTNC.   GRADIENT

   1    1    1     1     1    5.6250E+01  3.5874E-01   5.5891E+01  0.000E+00  0.000E+00  0.000E+00  1.09453E+03  1.479E+00  1.780E+01  8.010E-02  1.493E+00
   1    2    2     1     2    5.5891E+01  5.5550E-01   5.5335E+01  0.000E+00  0.000E+00  0.000E+00  1.08953E+03  1.473E+00  1.774E+01  1.242E-01  1.491E+00
   1    3    3     1     3    5.5335E+01  4.7368E-01   5.4862E+01  0.000E+00  0.000E+00  0.000E+00  1.08389E+03  1.467E+00  1.767E+01  1.060E-01  1.489E+00
   1    3    4     1     4    5.4862E+01  4.3613E-01   5.4426E+01  0.000E+00  0.000E+00  0.000E+00  1.07887E+03  1.461E+00  1.762E+01  9.777E-02  1.487E+00
   1    4    5     2     1    5.2426E+01  3.8056E-01   5.2045E+01  0.000E+00  0.000E+00  0.000E+00  1.07381E+03  1.879E+00  1.200E+01  7.800E-02  1.626E+00
   1    5    6     2     2    5.2045E+01  2.9230E-01   5.1753E+01  0.000E+00  0.000E+00  0.000E+00  1.06838E+03  1.872E+00  1.200E+01  6.000E-02  1.624E+00
   1    6    6     2     3    5.1753E+01  2.9192E-01   5.1461E+01  0.000E+00  0.000E+00  0.000E+00  1.06366E+03  1.865E+00  1.200E+01  6.000E-02  1.622E+00
   1    7    6     2     4    5.1461E+01  2.9154E-01   5.1169E+01  0.000E+00  0.000E+00  0.000E+00  1.05893E+03  1.859E+00  1.200E+01  6.000E-02  1.620E+00
   1    8    6     2     5    5.1169E+01  2.9116E-01   5.0878E+01  0.000E+00  0.000E+00  0.000E+00  1.05421E+03  1.853E+00  1.200E+01  6.000E-02  1.618E+00
   1    3    5     3     1    2.0000E+00  2.8252E-01   1.7175E+00  0.000E+00  0.000E+00  0.000E+00  1.07555E+03  1.909E+00  9.636E+00  7.227E-02  1.955E+00
   1    3    6     3     2    1.7175E+00  2.4905E-01   1.4684E+00  0.000E+00  0.000E+00  0.000E+00  1.07264E+03  1.727E+00  8.909E+00  6.682E-02  1.864E+00
   1    3    7     3     3    1.4684E+00  1.9718E-01   1.2712E+00  0.000E+00  0.000E+00  0.000E+00  1.06987E+03  1.555E+00  8.218E+00  5.547E-02  1.777E+00
   1    4    8     3     4    1.2712E+00  2.2567E-01   1.0456E+00  0.000E+00  0.000E+00  0.000E+00  1.06682E+03  1.364E+00  7.455E+00  6.709E-02  1.682E+00
   1    5    8     3     5    1.0456E+00  1.5790E-01   8.8768E-01  0.000E+00  0.000E+00  0.000E+00  1.06362E+03  1.164E+00  6.655E+00  4.991E-02  1.582E+00
   1    6    8     3     6    8.8768E-01  5.5980E-02   8.3170E-01  0.000E+00  0.000E+00  0.000E+00  1.06158E+03  1.036E+00  6.145E+00  1.844E-02  1.518E+00
   1    5   10     4     1    1.0000E+01  9.0919E-02   9.9091E+00  0.000E+00  0.000E+00  0.000E+00  1.07836E+03  6.368E-01  1.000E+01  2.500E-02  1.212E+00
   1    5    9     4     2    9.9091E+00  1.8158E-01   9.7275E+00  0.000E+00  0.000E+00  0.000E+00  1.07154E+03  6.315E-01  1.000E+01  5.000E-02  1.211E+00
   1    6    8     4     3    9.7275E+00  1.2689E-01   9.6006E+00  0.000E+00  0.000E+00  0.000E+00  1.06381E+03  6.256E-01  1.000E+01  3.500E-02  1.209E+00
   1    6    8     5     1    1.0432E+01  2.2686E-01   1.0205E+01  0.000E+00  0.000E+00  0.000E+00  1.05868E+03  6.790E-01  1.542E+01  6.166E-02  1.226E+00
   1    7    7     5     2    1.0205E+01  2.7894E-01   9.9265E+00  0.000E+00  0.000E+00  0.000E+00  1.05417E+03  6.732E-01  1.519E+01  7.594E-02  1.224E+00
   1    8    7     5     3    9.9265E+00  1.9221E-01   9.7343E+00  0.000E+00  0.000E+00  0.000E+00  1.04992E+03  6.676E-01  1.497E+01  5.241E-02  1.223E+00
   1    8    6     5     4    9.7343E+00  1.3577E-01   9.5985E+00  0.000E+00  0.000E+00  0.000E+00  1.04691E+03  6.637E-01  1.482E+01  3.706E-02  1.221E+00
   1    9    6     6     1    9.5985E+00  2.2097E-01   9.3776E+00  0.000E+00  0.000E+00  0.000E+00  1.04341E+03  6.828E-01  1.200E+01  6.000E-02  1.228E+00
   1   10    7     6     2    9.3776E+00  2.2039E-01   9.1572E+00  0.000E+00  0.000E+00  0.000E+00  1.03885E+03  6.732E-01  1.200E+01  6.000E-02  1.224E+00
   1   11    7     6     3    9.1572E+00  2.1981E-01   8.9374E+00  0.000E+00  0.000E+00  0.000E+00  1.03430E+03  6.636E-01  1.200E+01  6.000E-02  1.221E+00
   1   12    7     6     4    8.9374E+00  2.1923E-01   8.7181E+00  0.000E+00  0.000E+00  0.000E+00  1.02974E+03  6.539E-01  1.200E+01  6.000E-02  1.218E+00
   1   13    7     6     5    8.7181E+00 -1.3284E-01   8.8510E+00  0.000E+00  0.000E+00  0.000E+00  1.02656E+03  6.519E-01  1.200E+01  2.400E-01 -1.845E-01
   1   14    9     7     1    1.5000E+02  1.3358E+00   1.4866E+02  0.000E+00  0.000E+00  0.000E+00  1.03987E+03  2.288E+00  5.529E+01  5.593E-01  7.961E-01
   1   13    8     7     2    1.4866E+02  1.8195E+00   1.4684E+02  0.000E+00  0.000E+00  0.000E+00  1.03478E+03  2.279E+00  5.526E+01  6.148E-01  9.866E-01
   1   13    7     7     3    1.4684E+02  1.4383E+00   1.4541E+02  0.000E+00  0.000E+00  0.000E+00  1.02969E+03  2.271E+00  5.522E+01  5.585E-01  8.585E-01
   1   13    6     8     1    1.5426E+02  7.9090E-01   1.5347E+02  0.000E+00  0.000E+00  0.000E+00  1.02472E+03  2.844E+00  4.124E+01  4.202E-01  6.274E-01
   1   13    5     8     2    1.5347E+02  6.7764E-02   1.5340E+02  0.000E+00  0.000E+00  0.000E+00  1.01847E+03  2.841E+00  4.119E+01  4.198E-01  5.381E-02
   1   13    4     8     3    1.5340E+02 -2.7910E+00   1.5619E+02  0.000E+00  0.000E+00  0.000E+00  1.01223E+03  2.850E+00  4.133E+01  4.212E+00 -2.209E-01
   1   13    3     8     4    1.5619E+02 -3.8413E+00   1.6003E+02  0.000E+00  0.000E+00  0.000E+00  1.00600E+03  2.873E+00  4.166E+01  4.245E+00 -3.016E-01
   1   13    2     8     5    1.6003E+02 -2.6952E+00   1.6273E+02  0.000E+00  0.000E+00  0.000E+00  9.99770E+02  2.895E+00  4.198E+01  4.278E+00 -2.100E-01
   1   13    1     8     6    1.6273E+02 -2.0920E+00   1.6482E+02  0.000E+00  0.000E+00  0.000E+00  9.94786E+02  2.911E+00  4.221E+01  2.581E+00 -2.702E-01
   1    8    6     9     1    5.0878E+01  0.0000E+00   5.0878E+01  0.000E+00  0.000E+00  0.000E+00  1.08476E+03  6.014E+00  4.000E+00  0.000E+00  3.005E+00
   1    8    5     9     2    5.0878E+01  0.0000E+00   5.0878E+01  0.000E+00  0.000E+00  0.000E+00  1.08426E+03  6.014E+00  4.000E+00  0.000E+00  3.005E+00





UNSATURATED ZONE PACKAGE VOLUMETRIC BUDGET FOR  TIME STEP    30 STRESS PERIOD    8
  ------------------------------------------------------------------------------



     CUMULATIVE VOLUMES      L**3       RATES FOR THIS TIME STEP      L**3/T
     ------------------                 ------------------------

           IN:                                      IN:
           ---                                      ---
        INFILTRATION =   401703085.7395          INFILTRATION =          64.6451

          OUT:                                     OUT:
          ----                                     ----
              UZF ET =   304927465.4175                UZF ET =          64.1075
        UZF RECHARGE =       73224.0000          UZF RECHARGE =       0.0000E+00

            IN - OUT =    96702396.3220              IN - OUT =           0.5376

          STORAGE:                                 STORAGE:
          --------                                 --------
      STORAGE CHANGE =    96702388.7472        STORAGE CHANGE =           0.5376

 PERCENT DISCREPANCY IS DIFFERENCE BETWEEN IN-OUT MINUS CHANGE IN STORAGE
 DIVIDED BY THE AVERAGE OF IN AND OUT TIMES 100

 PERCENT DISCREPANCY =           0.00     PERCENT DISCREPANCY =           0.00






1
  VOLUMETRIC BUDGET FOR AGRICULTURAL FIELDS AT  END OF TIME STEP   30, STRESS PERIOD   8
  ------------------------------------------------------------------------------

     CUMULATIVE VOLUMES      L**3       RATES FOR THIS TIME STEP      L**3/T
     ------------------                 ------------------------

           IN:                                      IN:
           ---                                      ---
               AG WELLS  =    99482464.0000                 AG WELLS  =           9.3586
      DIVERSION SEGMENTS =   221047696.0000        DIVERSION SEGMENTS =          50.8780
           GW IRRIGATION =           0.0000             GW IRRIGATION =           0.0000
           SW IRRIGATION =           0.0000             SW IRRIGATION =           0.0000
        SYSTEM LOSSES GW =           0.0000          SYSTEM LOSSES GW =           0.0000
        SYSTEM LOSSES SW =           0.0000          SYSTEM LOSSES SW =           0.0000

                TOTAL IN =   320530176.0000                  TOTAL IN =          60.2366

          OUT:                                     OUT:
          ----                                     ----
               AG WELLS  =           0.0000                 AG WELLS  =           0.0000
      DIVERSION SEGMENTS =           0.0000        DIVERSION SEGMENTS =           0.0000
           GW IRRIGATION =    99482464.0000             GW IRRIGATION =           9.3586
           SW IRRIGATION =   221052224.0000             SW IRRIGATION =          50.8790
        SYSTEM LOSSES GW =           0.0000          SYSTEM LOSSES GW =           0.0000
        SYSTEM LOSSES SW =           0.0000          SYSTEM LOSSES SW =           0.0000

               TOTAL OUT =   320534688.0000                 TOTAL OUT =          60.2376

                IN - OUT =       -4512.0000                  IN - OUT =      -1.0185E-03

     PERCENT DISCREPANCY =          -0.00         PERCENT DISCREPANCY =          -0.00



1
  VOLUMETRIC BUDGET FOR ENTIRE MODEL AT END OF TIME STEP   30, STRESS PERIOD   8
  ------------------------------------------------------------------------------

     CUMULATIVE VOLUMES      L**3       RATES FOR THIS TIME STEP      L**3/T
     ------------------                 ------------------------

           IN:                                      IN:
           ---                                      ---
             STORAGE     =   116649272.0000               STORAGE     =          14.4262
       CONSTANT HEAD     =           0.0000         CONSTANT HEAD     =           0.0000
     HEAD DEP BOUNDS     =     5284902.5000       HEAD DEP BOUNDS     =           0.2858
      STREAM LEAKAGE     =   226177024.0000        STREAM LEAKAGE     =          12.1057
        UZF RECHARGE     =       73223.9531          UZF RECHARGE     =           0.0000
               GW ET     =           0.0000                 GW ET     =           0.0000
     SURFACE LEAKAGE     =           0.0000       SURFACE LEAKAGE     =           0.0000
           AG WELLS      =           0.0000             AG WELLS      =           0.0000

                TOTAL IN =   348184416.0000                  TOTAL IN =          26.8176

          OUT:                                     OUT:
          ----                                     ----
             STORAGE     =    42649196.0000               STORAGE     =           5.6181
       CONSTANT HEAD     =           0.0000         CONSTANT HEAD     =           0.0000
     HEAD DEP BOUNDS     =     5396969.0000       HEAD DEP BOUNDS     =           0.2887
      STREAM LEAKAGE     =   199164624.0000        STREAM LEAKAGE     =          11.5523
        UZF RECHARGE     =           0.0000          UZF RECHARGE     =           0.0000
               GW ET     =     1494030.3750                 GW ET     =           0.0000
     SURFACE LEAKAGE     =           0.0000       SURFACE LEAKAGE     =           0.0000
           AG WELLS      =    99482464.0000             AG WELLS      =           9.3586

               TOTAL OUT =   348187264.0000                 TOTAL OUT =          26.8176

                IN - OUT =       -2848.0000                  IN - OUT =       1.1444E-05

     PERCENT DISCREPANCY =          -0.00         PERCENT DISCREPANCY =           0.00






         TIME SUMMARY AT END OF TIME STEP   30 IN STRESS PERIOD    8
                    SECONDS     MINUTES      HOURS       DAYS        YEARS
                    -----------------------------------------------------------
   TIME STEP LENGTH  87667.      1461.1      24.352      1.0147     2.77799E-03
 STRESS PERIOD TIME 2.63000E+06  43833.      730.56      30.440     8.33397E-02
         TOTAL TIME 1.84964E+07 3.08274E+05  5137.9      214.08     0.58612    
1
1
                            STRESS PERIOD NO.    9, LENGTH =   2630000.    
                            -----------------------------------------------

                              NUMBER OF TIME STEPS =    30

                               MULTIPLIER FOR DELT =     1.000

                            INITIAL TIME STEP SIZE =   87666.66    

 REUSING NON-PARAMETER GHB CELLS FROM LAST STRESS PERIOD

      2 GHB CELLS

 REUSING STREAM SEGMENT DATA FROM LAST STRESS PERIOD



            AREAL INFILTRATION RATE
 READING ON UNIT   19 WITH FORMAT: (10F4.0)            

            1           2           3           4           5           6           7           8           9          10
 ........................................................................................................................
   1   1.2000E-09   0.000       0.000       0.000       0.000       0.000       0.000       0.000       0.000       0.000    
   2   2.1000E-09  2.0000E-09  8.0000E-10  8.5000E-09   0.000       0.000       0.000       0.000       0.000       0.000    
   3   5.0000E-10  1.1000E-09  8.8000E-09  5.5000E-09   0.000       0.000       0.000       0.000       0.000       0.000    
   4   8.5000E-09  1.1000E-09  1.1000E-09  1.1000E-09  2.0000E-09   0.000       0.000       0.000       0.000       0.000    
   5   8.5000E-09  1.1000E-09  1.1000E-09  1.1000E-09  1.1000E-09   0.000       0.000       0.000       0.000       0.000    
   6   8.5000E-09  5.2000E-09  2.1000E-09  1.1000E-09  1.5000E-09   0.000       0.000       0.000       0.000       0.000    
   7   8.5000E-09  5.2000E-09  2.1000E-09  1.2000E-09  2.0000E-09   0.000       0.000       0.000       0.000       0.000    
   8   5.0000E-10  5.2000E-09  2.1000E-09  1.2000E-09  5.0000E-09   0.000       0.000       0.000       0.000       0.000    
   9   5.0000E-10  5.2000E-09  2.1000E-09  1.2000E-09  5.0000E-09   0.000       0.000       0.000       0.000       0.000    
  10   5.0000E-10  5.2000E-09  2.1000E-09  1.2000E-09  5.8000E-09   0.000       0.000       0.000       0.000       0.000    
  11   1.0000E-10  1.1000E-09  1.1000E-09  1.2000E-09  5.0000E-09   0.000       0.000       0.000       0.000       0.000    
  12   1.1000E-09  1.1000E-09  1.1000E-09  1.1000E-09  2.0000E-09   0.000       0.000       0.000       0.000       0.000    
  13   1.1000E-09  2.2000E-09  2.2000E-09  2.1000E-09  1.0000E-09   0.000       0.000       0.000       0.000       0.000    
  14   2.0000E-10  5.5000E-09  5.5000E-09  5.2000E-09  1.0000E-09   0.000       0.000       0.000       0.000       0.000    
  15    0.000      8.8000E-09  8.8000E-09   0.000       0.000       0.000       0.000       0.000       0.000       0.000    

                  ET RATE =  3.250000E-07

 USING ET EXTINCTION DEPTH FROM PREVIOUS STRESS PERIOD. CURRENT PERIOD IS:       9

 USING EXTINCTION WATER CONTENT FROM PREVIOUS STRESS PERIOD. CURRENT PERIOD IS:       9

 USING AIR ENTRY PRESSURE FROM PREVIOUS STRESS PERIOD. CURRENT PERIOD IS:       9

 USING ROOT PRESSURE HEAD FROM PREVIOUS STRESS PERIOD. CURRENT PERIOD IS:       9

 USING ROOT ACTIVITY FROM PREVIOUS STRESS PERIOD. CURRENT PERIOD IS:       9

 PROCESSING AG STRESS PERIOD DATA

 READING AG STRESS PERIOD DATA

 READING IRRIGATION SEGMENT

 READING IRRIGATION WELL

 READING SUPPLEMENTAL WELL

 END PROCESSING AG STRESS PERIOD DATA OPTIONS
 
 SOLVING FOR HEAD 
                                                   Max.-Head-Change                         Max.-Flux-Residual
  Residual-Control   Outer-Iter.   Inner-Iter.     Column Row Layer    Maximum-Head-Change  Column Row Layer    Maximum-Flux-Residual          L2-NORM 
          0                 1           2             5    8     1       0.5258771453E-01       5    8    1         0.2873696089E+01      0.6918924507E+01
          0                 2           2             4    7     1      -0.1741077527E+00       5    8    1        -0.9482292675E+01      0.2315928252E+02
          0                 3           2             4    7     1       0.1185594547E-01       5    8    1         0.6637256858E+00      0.1624550196E+01
          0                 4           2             4    7     1      -0.4717598621E-03       5    8    1        -0.2714381397E-01      0.6669875099E-01
          0                 5           1             4    7     1       0.5817002451E-05       5    8    1         0.3438163667E-03      0.8930101915E-03

    ------------------------------------------------
       NWT REQUIRED            5 OUTER ITERATIONS 
       AND A TOTAL OF          9 INNER ITERATIONS.
    ------------------------------------------------

 NO OUTPUT CONTROL FOR STRESS PERIOD    9   TIME STEP    1
 
 SOLVING FOR HEAD 
                                                   Max.-Head-Change                         Max.-Flux-Residual
  Residual-Control   Outer-Iter.   Inner-Iter.     Column Row Layer    Maximum-Head-Change  Column Row Layer    Maximum-Flux-Residual          L2-NORM 
          0                 1           2             5    8     1       0.5503510487E-01       5    8    1         0.3007705320E+01      0.7212616200E+01
          0                 2           2             5    6     1      -0.3643548379E-01       5    8    1        -0.2011539080E+01      0.4831846648E+01
          0                 3           2             4    7     1       0.3196153158E-01       5    8    1         0.1773565863E+01      0.4350100848E+01
          0                 4           2             4    7     1      -0.1275702929E-02       5    8    1        -0.7274493197E-01      0.1779143608E+00
          0                 5           2             4   13     1      -0.1721756019E-03       4   13    1        -0.1072279436E-01      0.1880756317E-01
          0                 6           2             4   13     1      -0.1710811132E-03       4   13    1        -0.1065351471E-01      0.2515348126E-01
          0                 7           2             4    7     1       0.2623071143E-03       5    8    1         0.1528949347E-01      0.4114061386E-01
          0                 8           2             4    7     1       0.9968279732E-03       5    8    1         0.5810292677E-01      0.1429571612E+00
          0                 9           1             4    7     1       0.1463096908E-04       5    8    1         0.8535373372E-03      0.2095525566E-02

    ------------------------------------------------
       NWT REQUIRED            9 OUTER ITERATIONS 
       AND A TOTAL OF         17 INNER ITERATIONS.
    ------------------------------------------------

 NO OUTPUT CONTROL FOR STRESS PERIOD    9   TIME STEP    2
 
 SOLVING FOR HEAD 
                                                   Max.-Head-Change                         Max.-Flux-Residual
  Residual-Control   Outer-Iter.   Inner-Iter.     Column Row Layer    Maximum-Head-Change  Column Row Layer    Maximum-Flux-Residual          L2-NORM 
          0                 1           2             5    8     1       0.5238012856E-01       5    8    1         0.2859983251E+01      0.6936695737E+01
          0                 2           2             4    7     1      -0.1162266240E+00       5    8    1        -0.6365865854E+01      0.1555042904E+02
          0                 3           2             4    7     1       0.2046212248E-01       5    8    1         0.1137923955E+01      0.2781706563E+01
          0                 4           2             4    7     1      -0.8142092437E-03       5    8    1        -0.4653286536E-01      0.1139981553E+00
          0                 5           1             4    7     1       0.1003954955E-04       5    6    1         0.5891784044E-03      0.1487836092E-02

    ------------------------------------------------
       NWT REQUIRED            5 OUTER ITERATIONS 
       AND A TOTAL OF          9 INNER ITERATIONS.
    ------------------------------------------------

 NO OUTPUT CONTROL FOR STRESS PERIOD    9   TIME STEP    3
 
 SOLVING FOR HEAD 
                                                   Max.-Head-Change                         Max.-Flux-Residual
  Residual-Control   Outer-Iter.   Inner-Iter.     Column Row Layer    Maximum-Head-Change  Column Row Layer    Maximum-Flux-Residual          L2-NORM 
          0                 1           2             5    8     1       0.5281630948E-01       5    8    1         0.2883075627E+01      0.7011576710E+01
          0                 2           2             5    6     1      -0.4547907564E-01       5    8    1        -0.2507170451E+01      0.6066665689E+01
          0                 3           2             4    7     1       0.4323651694E-01       5    8    1         0.2394367713E+01      0.5875916476E+01
          0                 4           2             4    7     1      -0.1720431963E-02       5    8    1        -0.9790482290E-01      0.2420250380E+00
          0                 5           1             4    7     1       0.2121365480E-04       5    6    1         0.1239205035E-02      0.3291486247E-02

    ------------------------------------------------
       NWT REQUIRED            5 OUTER ITERATIONS 
       AND A TOTAL OF          9 INNER ITERATIONS.
    ------------------------------------------------

 NO OUTPUT CONTROL FOR STRESS PERIOD    9   TIME STEP    4
 
 SOLVING FOR HEAD 
                                                   Max.-Head-Change                         Max.-Flux-Residual
  Residual-Control   Outer-Iter.   Inner-Iter.     Column Row Layer    Maximum-Head-Change  Column Row Layer    Maximum-Flux-Residual          L2-NORM 
          0                 1           2             5    6     1       0.5035082906E-01       5    8    1         0.2744677494E+01      0.6756035159E+01
          0                 2           2             4    7     1      -0.1212100809E+00       5    8    1        -0.6616183960E+01      0.1618457381E+02
          0                 3           2             4    7     1       0.1605573771E-01       5    8    1         0.8935954955E+00      0.2184278924E+01
          0                 4           2             4    7     1      -0.6388741894E-03       5    8    1        -0.3654255143E-01      0.8954568714E-01
          0                 5           1             4    7     1       0.7877593655E-05       5    6    1         0.4627792891E-03      0.1173409465E-02

    ------------------------------------------------
       NWT REQUIRED            5 OUTER ITERATIONS 
       AND A TOTAL OF          9 INNER ITERATIONS.
    ------------------------------------------------

 NO OUTPUT CONTROL FOR STRESS PERIOD    9   TIME STEP    5
 
 SOLVING FOR HEAD 
                                                   Max.-Head-Change                         Max.-Flux-Residual
  Residual-Control   Outer-Iter.   Inner-Iter.     Column Row Layer    Maximum-Head-Change  Column Row Layer    Maximum-Flux-Residual          L2-NORM 
          0                 1           2             5    6     1       0.5119954934E-01       5    8    1         0.2792017177E+01      0.6871733398E+01
          0                 2           2             5    6     1      -0.4393948128E-01       5    8    1        -0.2421347417E+01      0.5870607645E+01
          0                 3           2             4    7     1       0.4175589060E-01       5    8    1         0.2311642759E+01      0.5673708353E+01
          0                 4           2             4    7     1      -0.1661515770E-02       5    6    1        -0.9452265815E-01      0.2334523683E+00
          0                 5           1             4    7     1       0.2048719379E-04       5    6    1         0.1196408584E-02      0.3171271402E-02

    ------------------------------------------------
       NWT REQUIRED            5 OUTER ITERATIONS 
       AND A TOTAL OF          9 INNER ITERATIONS.
    ------------------------------------------------

 NO OUTPUT CONTROL FOR STRESS PERIOD    9   TIME STEP    6
 
 SOLVING FOR HEAD 
                                                   Max.-Head-Change                         Max.-Flux-Residual
  Residual-Control   Outer-Iter.   Inner-Iter.     Column Row Layer    Maximum-Head-Change  Column Row Layer    Maximum-Flux-Residual          L2-NORM 
          0                 1           2             5    6     1       0.4897371945E-01       5    6    1         0.2660957755E+01      0.6627644583E+01
          0                 2           2             4    7     1      -0.1198865878E+00       5    6    1        -0.6531546829E+01      0.1599038258E+02
          0                 3           2             4    7     1       0.1734787871E-01       5    6    1         0.9639382603E+00      0.2357334258E+01
          0                 4           2             4    7     1      -0.6902899432E-03       5    6    1        -0.3941937175E-01      0.9660835978E-01
          0                 5           1             4    7     1       0.8511571862E-05       5    6    1         0.4991683186E-03      0.1260803150E-02

    ------------------------------------------------
       NWT REQUIRED            5 OUTER ITERATIONS 
       AND A TOTAL OF          9 INNER ITERATIONS.
    ------------------------------------------------

 NO OUTPUT CONTROL FOR STRESS PERIOD    9   TIME STEP    7
 
 SOLVING FOR HEAD 
                                                   Max.-Head-Change                         Max.-Flux-Residual
  Residual-Control   Outer-Iter.   Inner-Iter.     Column Row Layer    Maximum-Head-Change  Column Row Layer    Maximum-Flux-Residual          L2-NORM 
          0                 1           2             5    6     1       0.4984333924E-01       5    8    1         0.2709869815E+01      0.6742797508E+01
          0                 2           2             5    6     1      -0.4420847101E-01       5    8    1        -0.2435173690E+01      0.5917392616E+01
          0                 3           2             4    7     1       0.4218955488E-01       5    8    1         0.2334651440E+01      0.5731207371E+01
          0                 4           2             4    7     1      -0.1678771919E-02       5    6    1        -0.9546492834E-01      0.2358741861E+00
          0                 5           1             4    7     1       0.2069996933E-04       5    6    1         0.1208310201E-02      0.3205526204E-02

    ------------------------------------------------
       NWT REQUIRED            5 OUTER ITERATIONS 
       AND A TOTAL OF          9 INNER ITERATIONS.
    ------------------------------------------------

 NO OUTPUT CONTROL FOR STRESS PERIOD    9   TIME STEP    8
 
 SOLVING FOR HEAD 
                                                   Max.-Head-Change                         Max.-Flux-Residual
  Residual-Control   Outer-Iter.   Inner-Iter.     Column Row Layer    Maximum-Head-Change  Column Row Layer    Maximum-Flux-Residual          L2-NORM 
          0                 1           2             5    6     1       0.4771408394E-01       5    6    1         0.2590473799E+01      0.6509733870E+01
          0                 2           2             4    7     1      -0.1203845371E+00       5    6    1        -0.6546674833E+01      0.1603856588E+02
          0                 3           2             4    7     1       0.1697988955E-01       5    6    1         0.9428208974E+00      0.2306440843E+01
          0                 4           2             4    7     1      -0.6756472518E-03       5    6    1        -0.3855562069E-01      0.9453047259E-01
          0                 5           1             4    7     1       0.8331021197E-05       5    6    1         0.4882188532E-03      0.1235093355E-02

    ------------------------------------------------
       NWT REQUIRED            5 OUTER ITERATIONS 
       AND A TOTAL OF          9 INNER ITERATIONS.
    ------------------------------------------------

 NO OUTPUT CONTROL FOR STRESS PERIOD    9   TIME STEP    9
 
 SOLVING FOR HEAD 
                                                   Max.-Head-Change                         Max.-Flux-Residual
  Residual-Control   Outer-Iter.   Inner-Iter.     Column Row Layer    Maximum-Head-Change  Column Row Layer    Maximum-Flux-Residual          L2-NORM 
          0                 1           2             5    6     1       0.4869618536E-01       5    6    1         0.2643919699E+01      0.6634797022E+01
          0                 2           2             5    6     1      -0.4397992586E-01       5    6    1        -0.2422144859E+01      0.5895481795E+01
          0                 3           2             4    7     1       0.4207031385E-01       5    6    1         0.2327305458E+01      0.5713907088E+01
          0                 4           2             4    7     1      -0.1674027177E-02       5    6    1        -0.9516479778E-01      0.2351419104E+00
          0                 5           1             4    7     1       0.2064146465E-04       5    6    1         0.1204494779E-02      0.3195063725E-02

    ------------------------------------------------
       NWT REQUIRED            5 OUTER ITERATIONS 
       AND A TOTAL OF          9 INNER ITERATIONS.
    ------------------------------------------------

 NO OUTPUT CONTROL FOR STRESS PERIOD    9   TIME STEP   10
 
 SOLVING FOR HEAD 
                                                   Max.-Head-Change                         Max.-Flux-Residual
  Residual-Control   Outer-Iter.   Inner-Iter.     Column Row Layer    Maximum-Head-Change  Column Row Layer    Maximum-Flux-Residual          L2-NORM 
          0                 1           2             5    6     1       0.4664882343E-01       5    6    1         0.2530845757E+01      0.6410955950E+01
          0                 2           2             4    7     1      -0.1203396355E+00       5    6    1        -0.6534260061E+01      0.1601741529E+02
          0                 3           2             4    7     1       0.1709378116E-01       5    6    1         0.9484009264E+00      0.2320765383E+01
          0                 4           2             4    7     1      -0.6801791381E-03       5    6    1        -0.3878345350E-01      0.9511473051E-01
          0                 5           1             4    7     1       0.8386900918E-05       5    6    1         0.4910795901E-03      0.1242363633E-02

    ------------------------------------------------
       NWT REQUIRED            5 OUTER ITERATIONS 
       AND A TOTAL OF          9 INNER ITERATIONS.
    ------------------------------------------------

 NO OUTPUT CONTROL FOR STRESS PERIOD    9   TIME STEP   11
 
 SOLVING FOR HEAD 
                                                   Max.-Head-Change                         Max.-Flux-Residual
  Residual-Control   Outer-Iter.   Inner-Iter.     Column Row Layer    Maximum-Head-Change  Column Row Layer    Maximum-Flux-Residual          L2-NORM 
          0                 1           2             5    6     1       0.4770043781E-01       5    6    1         0.2588185335E+01      0.6541256103E+01
          0                 2           2             5    7     1      -0.4393022500E-01       5    6    1        -0.2418441215E+01      0.5894775378E+01
          0                 3           2             4    7     1       0.4211145882E-01       5    6    1         0.2328915882E+01      0.5718490721E+01
          0                 4           2             4    7     1      -0.1675664420E-02       5    6    1        -0.9523041251E-01      0.2353339689E+00
          0                 5           1             4    7     1       0.2066165241E-04       5    6    1         0.1205309183E-02      0.3197236750E-02

    ------------------------------------------------
       NWT REQUIRED            5 OUTER ITERATIONS 
       AND A TOTAL OF          9 INNER ITERATIONS.
    ------------------------------------------------

 NO OUTPUT CONTROL FOR STRESS PERIOD    9   TIME STEP   12
 
 SOLVING FOR HEAD 
                                                   Max.-Head-Change                         Max.-Flux-Residual
  Residual-Control   Outer-Iter.   Inner-Iter.     Column Row Layer    Maximum-Head-Change  Column Row Layer    Maximum-Flux-Residual          L2-NORM 
          0                 1           2             5    6     1       0.4572443619E-01       5    6    1         0.2479101064E+01      0.6325431026E+01
          0                 2           2             4    7     1      -0.1204410751E+00       5    6    1        -0.6530963480E+01      0.1601744159E+02
          0                 3           2             4    7     1       0.1706668135E-01       5    6    1         0.9462896283E+00      0.2316180986E+01
          0                 4           2             4    7     1      -0.6791008161E-03       5    6    1        -0.3869681137E-01      0.9492719716E-01
          0                 5           1             4    7     1       0.8373605205E-05       5    6    1         0.4899619134E-03      0.1240056298E-02

    ------------------------------------------------
       NWT REQUIRED            5 OUTER ITERATIONS 
       AND A TOTAL OF          9 INNER ITERATIONS.
    ------------------------------------------------

 NO OUTPUT CONTROL FOR STRESS PERIOD    9   TIME STEP   13
 
 SOLVING FOR HEAD 
                                                   Max.-Head-Change                         Max.-Flux-Residual
  Residual-Control   Outer-Iter.   Inner-Iter.     Column Row Layer    Maximum-Head-Change  Column Row Layer    Maximum-Flux-Residual          L2-NORM 
          0                 1           2             5    6     1       0.4684391542E-01       5    6    1         0.2540231467E+01      0.6460920647E+01
          0                 2           2             5    7     1      -0.4390745122E-01       5    6    1        -0.2413101620E+01      0.5888907829E+01
          0                 3           2             4    7     1       0.4210522709E-01       5    6    1         0.2327997802E+01      0.5716775834E+01
          0                 4           2             4    7     1      -0.1675416472E-02       5    6    1        -0.9519266903E-01      0.2352599317E+00
          0                 5           1             4    7     1       0.2065859508E-04       5    6    1         0.1204817704E-02      0.3196038683E-02

    ------------------------------------------------
       NWT REQUIRED            5 OUTER ITERATIONS 
       AND A TOTAL OF          9 INNER ITERATIONS.
    ------------------------------------------------

 NO OUTPUT CONTROL FOR STRESS PERIOD    9   TIME STEP   14
 
 SOLVING FOR HEAD 
                                                   Max.-Head-Change                         Max.-Flux-Residual
  Residual-Control   Outer-Iter.   Inner-Iter.     Column Row Layer    Maximum-Head-Change  Column Row Layer    Maximum-Flux-Residual          L2-NORM 
          0                 1           2             5    6     1       0.4492928102E-01       5    6    1         0.2434575093E+01      0.6252040323E+01
          0                 2           2             4    7     1      -0.1204896770E+00       5    6    1        -0.6525964043E+01      0.1601217980E+02
          0                 3           2             4    7     1       0.1707991979E-01       5    6    1         0.9464837786E+00      0.2317158233E+01
          0                 4           2             4    7     1      -0.6796275968E-03       5    6    1        -0.3870447249E-01      0.9496671252E-01
          0                 5           1             4    7     1       0.8380100273E-05       5    6    1         0.4900399917E-03      0.1240577519E-02

    ------------------------------------------------
       NWT REQUIRED            5 OUTER ITERATIONS 
       AND A TOTAL OF          9 INNER ITERATIONS.
    ------------------------------------------------

 NO OUTPUT CONTROL FOR STRESS PERIOD    9   TIME STEP   15
 
 SOLVING FOR HEAD 
                                                   Max.-Head-Change                         Max.-Flux-Residual
  Residual-Control   Outer-Iter.   Inner-Iter.     Column Row Layer    Maximum-Head-Change  Column Row Layer    Maximum-Flux-Residual          L2-NORM 
          0                 1           2             5    6     1       0.4610530224E-01       5    6    1         0.2498862977E+01      0.6391643794E+01
          0                 2           2             5    7     1      -0.4389837926E-01       5    6    1        -0.2409123411E+01      0.5885420963E+01
          0                 3           2             4    7     1       0.4211212935E-01       5    6    1         0.2327877876E+01      0.5716948823E+01
          0                 4           2             4    7     1      -0.1675691143E-02       5    6    1        -0.9518758448E-01      0.2352651830E+00
          0                 5           1             4    7     1       0.2066198185E-04       5    6    1         0.1204741066E-02      0.3196960403E-02

    ------------------------------------------------
       NWT REQUIRED            5 OUTER ITERATIONS 
       AND A TOTAL OF          9 INNER ITERATIONS.
    ------------------------------------------------

 NO OUTPUT CONTROL FOR STRESS PERIOD    9   TIME STEP   16
 
 SOLVING FOR HEAD 
                                                   Max.-Head-Change                         Max.-Flux-Residual
  Residual-Control   Outer-Iter.   Inner-Iter.     Column Row Layer    Maximum-Head-Change  Column Row Layer    Maximum-Flux-Residual          L2-NORM 
          0                 1           2             5    6     1       0.4424452275E-01       5    6    1         0.2396212185E+01      0.6188835233E+01
          0                 2           2             4    7     1      -0.1205446949E+00       5    6    1        -0.6522287576E+01      0.1600923146E+02
          0                 3           2             4    7     1       0.1708078603E-01       5    6    1         0.9460641722E+00      0.2316565465E+01
          0                 4           2             4    7     1      -0.6796620733E-03       5    6    1        -0.3868706948E-01      0.9494214061E-01
          0                 5           1             4    7     1       0.8380525706E-05       5    6    1         0.4898030938E-03      0.1240268744E-02

    ------------------------------------------------
       NWT REQUIRED            5 OUTER ITERATIONS 
       AND A TOTAL OF          9 INNER ITERATIONS.
    ------------------------------------------------

 NO OUTPUT CONTROL FOR STRESS PERIOD    9   TIME STEP   17
 
 SOLVING FOR HEAD 
                                                   Max.-Head-Change                         Max.-Flux-Residual
  Residual-Control   Outer-Iter.   Inner-Iter.     Column Row Layer    Maximum-Head-Change  Column Row Layer    Maximum-Flux-Residual          L2-NORM 
          0                 1           2             5    6     1       0.4547035718E-01       5    6    1         0.2463278230E+01      0.6331953651E+01
          0                 2           2             5    7     1      -0.4388651970E-01       5    6    1        -0.2405518764E+01      0.5882010115E+01
          0                 3           2             4    7     1       0.4211462442E-01       5    6    1         0.2327579297E+01      0.5716621061E+01
          0                 4           2             4    7     1      -0.1675790443E-02       5    6    1        -0.9517521551E-01      0.2352494514E+00
          0                 5           1             4    7     1       0.2066320639E-04       5    7    1         0.1204664924E-02      0.3196070401E-02

    ------------------------------------------------
       NWT REQUIRED            5 OUTER ITERATIONS 
       AND A TOTAL OF          9 INNER ITERATIONS.
    ------------------------------------------------

 NO OUTPUT CONTROL FOR STRESS PERIOD    9   TIME STEP   18
 
 SOLVING FOR HEAD 
                                                   Max.-Head-Change                         Max.-Flux-Residual
  Residual-Control   Outer-Iter.   Inner-Iter.     Column Row Layer    Maximum-Head-Change  Column Row Layer    Maximum-Flux-Residual          L2-NORM 
          0                 1           2             5    6     1       0.4365553683E-01       5    6    1         0.2363191358E+01      0.6134444119E+01
          0                 2           2             4    7     1      -0.1205899192E+00       5    6    1        -0.6518938360E+01      0.1600628470E+02
          0                 3           2             4    7     1       0.1708473512E-01       5    6    1         0.9458746988E+00      0.2316475724E+01
          0                 4           2             4    7     1      -0.6798192188E-03       5    6    1        -0.3867910345E-01      0.9493800966E-01
          0                 5           1             4    7     1       0.8382462890E-05       5    6    1         0.4896874216E-03      0.1240222709E-02

    ------------------------------------------------
       NWT REQUIRED            5 OUTER ITERATIONS 
       AND A TOTAL OF          9 INNER ITERATIONS.
    ------------------------------------------------

 NO OUTPUT CONTROL FOR STRESS PERIOD    9   TIME STEP   19
 
 SOLVING FOR HEAD 
                                                   Max.-Head-Change                         Max.-Flux-Residual
  Residual-Control   Outer-Iter.   Inner-Iter.     Column Row Layer    Maximum-Head-Change  Column Row Layer    Maximum-Flux-Residual          L2-NORM 
          0                 1           2             5    6     1       0.4492452019E-01       5    6    1         0.2432663105E+01      0.6280510718E+01
          0                 2           2             5    7     1      -0.4387685056E-01       5    6    1        -0.2402471153E+01      0.5879251565E+01
          0                 3           2             4    7     1       0.4211790285E-01       5    6    1         0.2327379793E+01      0.5716481558E+01
          0                 4           2             4    7     1      -0.1675920912E-02       5    6    1        -0.9516691530E-01      0.2352453460E+00
          0                 5           1             4    7     1       0.2066481493E-04       5    7    1         0.1204643756E-02      0.3199019392E-02

    ------------------------------------------------
       NWT REQUIRED            5 OUTER ITERATIONS 
       AND A TOTAL OF          9 INNER ITERATIONS.
    ------------------------------------------------

 NO OUTPUT CONTROL FOR STRESS PERIOD    9   TIME STEP   20
 
 SOLVING FOR HEAD 
                                                   Max.-Head-Change                         Max.-Flux-Residual
  Residual-Control   Outer-Iter.   Inner-Iter.     Column Row Layer    Maximum-Head-Change  Column Row Layer    Maximum-Flux-Residual          L2-NORM 
          0                 1           2             5    6     1       0.4315002526E-01       5    6    1         0.2334823758E+01      0.6087643448E+01
          0                 2           2             4    7     1      -0.1206311150E+00       5    6    1        -0.6516115496E+01      0.1600393475E+02
          0                 3           2             4    7     1       0.1708729413E-01       5    6    1         0.9456607948E+00      0.2316277426E+01
          0                 4           2             4    7     1      -0.6799210505E-03       5    6    1        -0.3867016196E-01      0.9492956662E-01
          0                 5           1             4    7     1       0.8383718800E-05       5    6    1         0.4895609932E-03      0.1240121283E-02

    ------------------------------------------------
       NWT REQUIRED            5 OUTER ITERATIONS 
       AND A TOTAL OF          9 INNER ITERATIONS.
    ------------------------------------------------

 NO OUTPUT CONTROL FOR STRESS PERIOD    9   TIME STEP   21
 
 SOLVING FOR HEAD 
                                                   Max.-Head-Change                         Max.-Flux-Residual
  Residual-Control   Outer-Iter.   Inner-Iter.     Column Row Layer    Maximum-Head-Change  Column Row Layer    Maximum-Flux-Residual          L2-NORM 
          0                 1           2             5    6     1       0.4445642543E-01       5    6    1         0.2406379848E+01      0.6236193551E+01
          0                 2           2             5    7     1      -0.4386801426E-01       5    6    1        -0.2399838602E+01      0.5876891323E+01
          0                 3           2             4    7     1       0.4212049754E-01       5    6    1         0.2327191222E+01      0.5716324821E+01
          0                 4           2             4    7     1      -0.1676024172E-02       5    6    1        -0.9515907740E-01      0.2352366416E+00
          0                 5           1             4    7     1       0.2066608797E-04       5    7    1         0.1204615443E-02      0.3198978295E-02

    ------------------------------------------------
       NWT REQUIRED            5 OUTER ITERATIONS 
       AND A TOTAL OF          9 INNER ITERATIONS.
    ------------------------------------------------

 NO OUTPUT CONTROL FOR STRESS PERIOD    9   TIME STEP   22
 
 SOLVING FOR HEAD 
                                                   Max.-Head-Change                         Max.-Flux-Residual
  Residual-Control   Outer-Iter.   Inner-Iter.     Column Row Layer    Maximum-Head-Change  Column Row Layer    Maximum-Flux-Residual          L2-NORM 
          0                 1           2             5    6     1       0.4271717110E-01       5    6    1         0.2310503555E+01      0.6047424611E+01
          0                 2           2             4    7     1      -0.1206674323E+00       5    6    1        -0.6513679244E+01      0.1600193518E+02
          0                 3           2             4    7     1       0.1708986583E-01       5    6    1         0.9454932339E+00      0.2316148594E+01
          0                 4           2             4    7     1      -0.6800233868E-03       5    6    1        -0.3866313576E-01      0.9492395128E-01
          0                 5           1             4    7     1       0.8384980872E-05       5    6    1         0.4894601966E-03      0.1240088345E-02

    ------------------------------------------------
       NWT REQUIRED            5 OUTER ITERATIONS 
       AND A TOTAL OF          9 INNER ITERATIONS.
    ------------------------------------------------

 NO OUTPUT CONTROL FOR STRESS PERIOD    9   TIME STEP   23
 
 SOLVING FOR HEAD 
                                                   Max.-Head-Change                         Max.-Flux-Residual
  Residual-Control   Outer-Iter.   Inner-Iter.     Column Row Layer    Maximum-Head-Change  Column Row Layer    Maximum-Flux-Residual          L2-NORM 
          0                 1           2             5    6     1       0.4405625408E-01       5    6    1         0.2383879244E+01      0.6198076185E+01
          0                 2           2             4    7     1      -0.4388744198E-01       5    6    1        -0.2397590033E+01      0.5874935714E+01
          0                 3           2             4    7     1       0.4212291195E-01       5    6    1         0.2327035252E+01      0.5716208327E+01
          0                 4           2             4    7     1      -0.1676120257E-02       5    6    1        -0.9515258581E-01      0.2352295934E+00
          0                 5           1             4    7     1       0.2066727298E-04       5    7    1         0.1204593207E-02      0.3198758925E-02

    ------------------------------------------------
       NWT REQUIRED            5 OUTER ITERATIONS 
       AND A TOTAL OF          9 INNER ITERATIONS.
    ------------------------------------------------

 NO OUTPUT CONTROL FOR STRESS PERIOD    9   TIME STEP   24
 
 SOLVING FOR HEAD 
                                                   Max.-Head-Change                         Max.-Flux-Residual
  Residual-Control   Outer-Iter.   Inner-Iter.     Column Row Layer    Maximum-Head-Change  Column Row Layer    Maximum-Flux-Residual          L2-NORM 
          0                 1           2             5    6     1       0.4234757789E-01       5    6    1         0.2289705131E+01      0.6012916630E+01
          0                 2           2             4    7     1      -0.1206999236E+00       5    6    1        -0.6511601365E+01      0.1600029857E+02
          0                 3           2             4    7     1       0.1709205530E-01       5    6    1         0.9453442618E+00      0.2316028061E+01
          0                 4           2             4    7     1      -0.6801105127E-03       5    6    1        -0.3865688727E-01      0.9491867022E-01
          0                 5           1             4    7     1       0.8386054422E-05       5    6    1         0.4893704690E-03      0.1239983062E-02

    ------------------------------------------------
       NWT REQUIRED            5 OUTER ITERATIONS 
       AND A TOTAL OF          9 INNER ITERATIONS.
    ------------------------------------------------

 NO OUTPUT CONTROL FOR STRESS PERIOD    9   TIME STEP   25
 
 SOLVING FOR HEAD 
                                                   Max.-Head-Change                         Max.-Flux-Residual
  Residual-Control   Outer-Iter.   Inner-Iter.     Column Row Layer    Maximum-Head-Change  Column Row Layer    Maximum-Flux-Residual          L2-NORM 
          0                 1           2             5    6     1       0.4371472052E-01       5    6    1         0.2364642603E+01      0.6165344918E+01
          0                 2           2             4    7     1      -0.4391800265E-01       5    6    1        -0.2395665708E+01      0.5873317033E+01
          0                 3           2             4    7     1       0.4212503131E-01       5    6    1         0.2326899833E+01      0.5716108321E+01
          0                 4           2             4    7     1      -0.1676204600E-02       5    6    1        -0.9514694608E-01      0.2352229418E+00
          0                 5           1             4    7     1       0.2066831293E-04       5    7    1         0.1204572662E-02      0.3198345131E-02

    ------------------------------------------------
       NWT REQUIRED            5 OUTER ITERATIONS 
       AND A TOTAL OF          9 INNER ITERATIONS.
    ------------------------------------------------

 NO OUTPUT CONTROL FOR STRESS PERIOD    9   TIME STEP   26
 
 SOLVING FOR HEAD 
                                                   Max.-Head-Change                         Max.-Flux-Residual
  Residual-Control   Outer-Iter.   Inner-Iter.     Column Row Layer    Maximum-Head-Change  Column Row Layer    Maximum-Flux-Residual          L2-NORM 
          0                 1           2             5    6     1       0.4203291806E-01       5    6    1         0.2271963553E+01      0.5983385662E+01
          0                 2           2             4    7     1      -0.1207289448E+00       5    6    1        -0.6509826780E+01      0.1599896309E+02
          0                 3           2             4    7     1       0.1709405106E-01       5    6    1         0.9452190615E+00      0.2315933397E+01
          0                 4           2             4    7     1      -0.6801899305E-03       5    6    1        -0.3865162624E-01      0.9491444705E-01
          0                 5           1             4    7     1       0.8387033880E-05       5    6    1         0.4892942675E-03      0.1239920443E-02

    ------------------------------------------------
       NWT REQUIRED            5 OUTER ITERATIONS 
       AND A TOTAL OF          9 INNER ITERATIONS.
    ------------------------------------------------

 NO OUTPUT CONTROL FOR STRESS PERIOD    9   TIME STEP   27
 
 SOLVING FOR HEAD 
                                                   Max.-Head-Change                         Max.-Flux-Residual
  Residual-Control   Outer-Iter.   Inner-Iter.     Column Row Layer    Maximum-Head-Change  Column Row Layer    Maximum-Flux-Residual          L2-NORM 
          0                 1           2             5    6     1       0.4342498813E-01       5    6    1         0.2348287151E+01      0.6137320598E+01
          0                 2           2             4    7     1      -0.4394538809E-01       5    6    1        -0.2394030452E+01      0.5872003816E+01
          0                 3           2             4    7     1       0.4212694895E-01       5    6    1         0.2326785603E+01      0.5716030665E+01
          0                 4           2             4    7     1      -0.1676280915E-02       5    6    1        -0.9514218273E-01      0.2352174878E+00
          0                 5           1             4    7     1       0.2066925374E-04       4    7    1         0.1204625455E-02      0.3197633342E-02

    ------------------------------------------------
       NWT REQUIRED            5 OUTER ITERATIONS 
       AND A TOTAL OF          9 INNER ITERATIONS.
    ------------------------------------------------

 NO OUTPUT CONTROL FOR STRESS PERIOD    9   TIME STEP   28
 
 SOLVING FOR HEAD 
                                                   Max.-Head-Change                         Max.-Flux-Residual
  Residual-Control   Outer-Iter.   Inner-Iter.     Column Row Layer    Maximum-Head-Change  Column Row Layer    Maximum-Flux-Residual          L2-NORM 
          0                 1           2             5    6     1       0.4176654797E-01       5    6    1         0.2256907828E+01      0.5958188225E+01
          0                 2           2             4    7     1      -0.1207549875E+00       5    6    1        -0.6508321254E+01      0.1599789912E+02
          0                 3           2             4    7     1       0.1709583481E-01       5    6    1         0.9451123543E+00      0.2315856154E+01
          0                 4           2             4    7     1      -0.6802609115E-03       5    6    1        -0.3864713476E-01      0.9491095720E-01
          0                 5           1             4    7     1       0.8387909275E-05       5    7    1         0.4892342181E-03      0.1239866194E-02

    ------------------------------------------------
       NWT REQUIRED            5 OUTER ITERATIONS 
       AND A TOTAL OF          9 INNER ITERATIONS.
    ------------------------------------------------

 NO OUTPUT CONTROL FOR STRESS PERIOD    9   TIME STEP   29
 
 SOLVING FOR HEAD 
                                                   Max.-Head-Change                         Max.-Flux-Residual
  Residual-Control   Outer-Iter.   Inner-Iter.     Column Row Layer    Maximum-Head-Change  Column Row Layer    Maximum-Flux-Residual          L2-NORM 
          0                 1           2             5    6     1       0.4318027952E-01       5    6    1         0.2334435567E+01      0.6113407187E+01
          0                 2           2             4    7     1      -0.4396999801E-01       5    6    1        -0.2392645340E+01      0.5870957036E+01
          0                 3           2             4    7     1       0.4212867080E-01       5    6    1         0.2326688644E+01      0.5715969510E+01
          0                 4           2             4    7     1      -0.1676349438E-02       5    6    1        -0.9513813441E-01      0.2352126085E+00
          0                 5           1             4    7     1       0.2067009889E-04       4    7    1         0.1204674759E-02      0.3198660828E-02

    ------------------------------------------------
       NWT REQUIRED            5 OUTER ITERATIONS 
       AND A TOTAL OF          9 INNER ITERATIONS.
    ------------------------------------------------

 NO OUTPUT CONTROL FOR STRESS PERIOD    9   TIME STEP   30



 STREAM LISTING     PERIOD      9   STEP       30

 LAYER ROW COL. STREAM  RCH.  FLOW INTO     FLOW TO   FLOW OUT OF   OVRLND.     DIRECT     STREAM       STREAM     STREAM     STREAM   STREAMBED  STREAMBED
                SEG.NO.  NO.  STRM. RCH.    AQUIFER    STRM. RCH.    RUNOFF     PRECIP       ET          HEAD       DEPTH      WIDTH   CONDCTNC.   GRADIENT

   1    1    1     1     1    4.5750E+01  3.2289E-01   4.5427E+01  0.000E+00  0.000E+00  0.000E+00  1.09442E+03  1.372E+00  1.641E+01  7.386E-02  1.457E+00
   1    2    2     1     2    4.5427E+01  5.0023E-01   4.4927E+01  0.000E+00  0.000E+00  0.000E+00  1.08943E+03  1.369E+00  1.636E+01  1.145E-01  1.456E+00
   1    3    3     1     3    4.4927E+01  4.2678E-01   4.4500E+01  0.000E+00  0.000E+00  0.000E+00  1.08378E+03  1.366E+00  1.629E+01  9.776E-02  1.455E+00
   1    3    4     1     4    4.4500E+01  3.9314E-01   4.4107E+01  0.000E+00  0.000E+00  0.000E+00  1.07877E+03  1.363E+00  1.624E+01  9.011E-02  1.454E+00
   1    4    5     2     1    4.2107E+01  3.6245E-01   4.1744E+01  0.000E+00  0.000E+00  0.000E+00  1.07358E+03  1.647E+00  1.200E+01  7.800E-02  1.549E+00
   1    5    6     2     2    4.1744E+01  2.7835E-01   4.1466E+01  0.000E+00  0.000E+00  0.000E+00  1.06815E+03  1.639E+00  1.200E+01  6.000E-02  1.546E+00
   1    6    6     2     3    4.1466E+01  2.7796E-01   4.1188E+01  0.000E+00  0.000E+00  0.000E+00  1.06343E+03  1.633E+00  1.200E+01  6.000E-02  1.544E+00
   1    7    6     2     4    4.1188E+01  2.7756E-01   4.0910E+01  0.000E+00  0.000E+00  0.000E+00  1.05870E+03  1.626E+00  1.200E+01  6.000E-02  1.542E+00
   1    8    6     2     5    4.0910E+01  2.7717E-01   4.0633E+01  0.000E+00  0.000E+00  0.000E+00  1.05398E+03  1.619E+00  1.200E+01  6.000E-02  1.540E+00
   1    3    5     3     1    2.0000E+00  2.8252E-01   1.7175E+00  0.000E+00  0.000E+00  0.000E+00  1.07555E+03  1.909E+00  9.636E+00  7.227E-02  1.955E+00
   1    3    6     3     2    1.7175E+00  2.4905E-01   1.4684E+00  0.000E+00  0.000E+00  0.000E+00  1.07264E+03  1.727E+00  8.909E+00  6.682E-02  1.864E+00
   1    3    7     3     3    1.4684E+00  1.9718E-01   1.2712E+00  0.000E+00  0.000E+00  0.000E+00  1.06987E+03  1.555E+00  8.218E+00  5.547E-02  1.777E+00
   1    4    8     3     4    1.2712E+00  2.2567E-01   1.0456E+00  0.000E+00  0.000E+00  0.000E+00  1.06682E+03  1.364E+00  7.455E+00  6.709E-02  1.682E+00
   1    5    8     3     5    1.0456E+00  1.5790E-01   8.8768E-01  0.000E+00  0.000E+00  0.000E+00  1.06362E+03  1.164E+00  6.655E+00  4.991E-02  1.582E+00
   1    6    8     3     6    8.8768E-01  5.5980E-02   8.3170E-01  0.000E+00  0.000E+00  0.000E+00  1.06158E+03  1.036E+00  6.145E+00  1.844E-02  1.518E+00
   1    5   10     4     1    1.0000E+01  9.0919E-02   9.9091E+00  0.000E+00  0.000E+00  0.000E+00  1.07836E+03  6.368E-01  1.000E+01  2.500E-02  1.212E+00
   1    5    9     4     2    9.9091E+00  1.8158E-01   9.7275E+00  0.000E+00  0.000E+00  0.000E+00  1.07154E+03  6.315E-01  1.000E+01  5.000E-02  1.211E+00
   1    6    8     4     3    9.7275E+00  1.2689E-01   9.6006E+00  0.000E+00  0.000E+00  0.000E+00  1.06381E+03  6.256E-01  1.000E+01  3.500E-02  1.209E+00
   1    6    8     5     1    1.0432E+01  2.2686E-01   1.0205E+01  0.000E+00  0.000E+00  0.000E+00  1.05868E+03  6.790E-01  1.542E+01  6.166E-02  1.226E+00
   1    7    7     5     2    1.0205E+01  2.7894E-01   9.9265E+00  0.000E+00  0.000E+00  0.000E+00  1.05417E+03  6.732E-01  1.519E+01  7.594E-02  1.224E+00
   1    8    7     5     3    9.9265E+00  1.9221E-01   9.7343E+00  0.000E+00  0.000E+00  0.000E+00  1.04992E+03  6.676E-01  1.497E+01  5.241E-02  1.223E+00
   1    8    6     5     4    9.7343E+00  1.3577E-01   9.5985E+00  0.000E+00  0.000E+00  0.000E+00  1.04691E+03  6.637E-01  1.482E+01  3.706E-02  1.221E+00
   1    9    6     6     1    2.4321E+01  2.5184E-01   2.4069E+01  0.000E+00  0.000E+00  0.000E+00  1.04392E+03  1.197E+00  1.200E+01  6.000E-02  1.399E+00
   1   10    7     6     2    2.4069E+01  2.5139E-01   2.3818E+01  0.000E+00  0.000E+00  0.000E+00  1.03937E+03  1.190E+00  1.200E+01  6.000E-02  1.397E+00
   1   11    7     6     3    2.3818E+01  2.5094E-01   2.3567E+01  0.000E+00  0.000E+00  0.000E+00  1.03482E+03  1.182E+00  1.200E+01  6.000E-02  1.394E+00
   1   12    7     6     4    2.3567E+01  2.5049E-01   2.3317E+01  0.000E+00  0.000E+00  0.000E+00  1.03027E+03  1.175E+00  1.200E+01  6.000E-02  1.392E+00
   1   13    7     6     5    2.3317E+01 -7.3867E-03   2.3324E+01  0.000E+00  0.000E+00  0.000E+00  1.02708E+03  1.171E+00  1.200E+01  2.400E-01 -1.026E-02
   1   14    9     7     1    1.5000E+02  1.3357E+00   1.4866E+02  0.000E+00  0.000E+00  0.000E+00  1.03987E+03  2.288E+00  5.529E+01  5.593E-01  7.961E-01
   1   13    8     7     2    1.4866E+02  1.8220E+00   1.4684E+02  0.000E+00  0.000E+00  0.000E+00  1.03478E+03  2.279E+00  5.526E+01  6.148E-01  9.879E-01
   1   13    7     7     3    1.4684E+02  1.4402E+00   1.4540E+02  0.000E+00  0.000E+00  0.000E+00  1.02969E+03  2.271E+00  5.522E+01  5.585E-01  8.597E-01
   1   13    6     8     1    1.6873E+02  8.6796E-01   1.6786E+02  0.000E+00  0.000E+00  0.000E+00  1.02482E+03  2.941E+00  4.265E+01  4.346E-01  6.658E-01
   1   13    5     8     2    1.6786E+02  1.2017E-01   1.6774E+02  0.000E+00  0.000E+00  0.000E+00  1.01856E+03  2.938E+00  4.260E+01  4.341E-01  9.227E-02
   1   13    4     8     3    1.6774E+02 -2.5333E+00   1.7027E+02  0.000E+00  0.000E+00  0.000E+00  1.01232E+03  2.946E+00  4.271E+01  4.353E+00 -1.940E-01
   1   13    3     8     4    1.7027E+02 -3.6243E+00   1.7390E+02  0.000E+00  0.000E+00  0.000E+00  1.00609E+03  2.966E+00  4.300E+01  4.382E+00 -2.757E-01
   1   13    2     8     5    1.7390E+02 -2.4483E+00   1.7634E+02  0.000E+00  0.000E+00  0.000E+00  9.99860E+02  2.985E+00  4.329E+01  4.411E+00 -1.850E-01
   1   13    1     8     6    1.7634E+02 -1.9032E+00   1.7825E+02  0.000E+00  0.000E+00  0.000E+00  9.94874E+02  2.999E+00  4.349E+01  2.659E+00 -2.386E-01
   1    8    6     9     1    2.5910E+01  0.0000E+00   2.5910E+01  0.000E+00  0.000E+00  0.000E+00  1.08276E+03  4.012E+00  4.000E+00  0.000E+00  2.337E+00
   1    8    5     9     2    2.5910E+01  0.0000E+00   2.5910E+01  0.000E+00  0.000E+00  0.000E+00  1.08226E+03  4.012E+00  4.000E+00  0.000E+00  2.337E+00





UNSATURATED ZONE PACKAGE VOLUMETRIC BUDGET FOR  TIME STEP    30 STRESS PERIOD    9
  ------------------------------------------------------------------------------



     CUMULATIVE VOLUMES      L**3       RATES FOR THIS TIME STEP      L**3/T
     ------------------                 ------------------------

           IN:                                      IN:
           ---                                      ---
        INFILTRATION =   547939985.8196          INFILTRATION =          30.3185

          OUT:                                     OUT:
          ----                                     ----
              UZF ET =   444029262.8101                UZF ET =          52.9209
        UZF RECHARGE =       73224.0000          UZF RECHARGE =       0.0000E+00

            IN - OUT =   103837499.0095              IN - OUT =         -22.6025

          STORAGE:                                 STORAGE:
          --------                                 --------
      STORAGE CHANGE =   103837487.8844        STORAGE CHANGE =         -22.6025

 PERCENT DISCREPANCY IS DIFFERENCE BETWEEN IN-OUT MINUS CHANGE IN STORAGE
 DIVIDED BY THE AVERAGE OF IN AND OUT TIMES 100

 PERCENT DISCREPANCY =           0.00     PERCENT DISCREPANCY =           0.00






1
  VOLUMETRIC BUDGET FOR AGRICULTURAL FIELDS AT  END OF TIME STEP   30, STRESS PERIOD   9
  ------------------------------------------------------------------------------

     CUMULATIVE VOLUMES      L**3       RATES FOR THIS TIME STEP      L**3/T
     ------------------                 ------------------------

           IN:                                      IN:
           ---                                      ---
               AG WELLS  =   146814048.0000                 AG WELLS  =           0.0000
      DIVERSION SEGMENTS =   308359584.0000        DIVERSION SEGMENTS =          25.9104
           GW IRRIGATION =           0.0000             GW IRRIGATION =           0.0000
           SW IRRIGATION =           0.0000             SW IRRIGATION =           0.0000
        SYSTEM LOSSES GW =           0.0000          SYSTEM LOSSES GW =           0.0000
        SYSTEM LOSSES SW =           0.0000          SYSTEM LOSSES SW =           0.0000

                TOTAL IN =   455173632.0000                  TOTAL IN =          25.9104

          OUT:                                     OUT:
          ----                                     ----
               AG WELLS  =           0.0000                 AG WELLS  =           0.0000
      DIVERSION SEGMENTS =           0.0000        DIVERSION SEGMENTS =           0.0000
           GW IRRIGATION =   146814048.0000             GW IRRIGATION =           0.0000
           SW IRRIGATION =   308365696.0000             SW IRRIGATION =          25.9110
        SYSTEM LOSSES GW =           0.0000          SYSTEM LOSSES GW =           0.0000
        SYSTEM LOSSES SW =           0.0000          SYSTEM LOSSES SW =           0.0000

               TOTAL OUT =   455179744.0000                 TOTAL OUT =          25.9110

                IN - OUT =       -6112.0000                  IN - OUT =      -5.1689E-04

     PERCENT DISCREPANCY =          -0.00         PERCENT DISCREPANCY =          -0.00



1
  VOLUMETRIC BUDGET FOR ENTIRE MODEL AT END OF TIME STEP   30, STRESS PERIOD   9
  ------------------------------------------------------------------------------

     CUMULATIVE VOLUMES      L**3       RATES FOR THIS TIME STEP      L**3/T
     ------------------                 ------------------------

           IN:                                      IN:
           ---                                      ---
             STORAGE     =   181778800.0000               STORAGE     =          12.5512
       CONSTANT HEAD     =           0.0000         CONSTANT HEAD     =           0.0000
     HEAD DEP BOUNDS     =     6036439.0000       HEAD DEP BOUNDS     =           0.2858
      STREAM LEAKAGE     =   257691792.0000        STREAM LEAKAGE     =          12.1087
        UZF RECHARGE     =       73223.9531          UZF RECHARGE     =           0.0000
               GW ET     =           0.0000                 GW ET     =           0.0000
     SURFACE LEAKAGE     =           0.0000       SURFACE LEAKAGE     =           0.0000
           AG WELLS      =           0.0000             AG WELLS      =           0.0000

                TOTAL IN =   445580224.0000                  TOTAL IN =          24.9457

          OUT:                                     OUT:
          ----                                     ----
             STORAGE     =    62879292.0000               STORAGE     =          14.1406
       CONSTANT HEAD     =           0.0000         CONSTANT HEAD     =           0.0000
     HEAD DEP BOUNDS     =     6155668.5000       HEAD DEP BOUNDS     =           0.2884
      STREAM LEAKAGE     =   228239808.0000        STREAM LEAKAGE     =          10.5165
        UZF RECHARGE     =           0.0000          UZF RECHARGE     =           0.0000
               GW ET     =     1494030.3750                 GW ET     =           0.0000
     SURFACE LEAKAGE     =           0.0000       SURFACE LEAKAGE     =           0.0000
           AG WELLS      =   146814048.0000             AG WELLS      =           0.0000

               TOTAL OUT =   445582816.0000                 TOTAL OUT =          24.9455

                IN - OUT =       -2592.0000                  IN - OUT =       1.4496E-04

     PERCENT DISCREPANCY =          -0.00         PERCENT DISCREPANCY =           0.00






         TIME SUMMARY AT END OF TIME STEP   30 IN STRESS PERIOD    9
                    SECONDS     MINUTES      HOURS       DAYS        YEARS
                    -----------------------------------------------------------
   TIME STEP LENGTH  87667.      1461.1      24.352      1.0147     2.77799E-03
 STRESS PERIOD TIME 2.63000E+06  43833.      730.56      30.440     8.33397E-02
         TOTAL TIME 2.11264E+07 3.52107E+05  5868.4      244.52     0.66945    
1
1
                            STRESS PERIOD NO.   10, LENGTH =   2630000.    
                            -----------------------------------------------

                              NUMBER OF TIME STEPS =    30

                               MULTIPLIER FOR DELT =     1.000

                            INITIAL TIME STEP SIZE =   87666.66    

 REUSING NON-PARAMETER GHB CELLS FROM LAST STRESS PERIOD

      2 GHB CELLS

 REUSING STREAM SEGMENT DATA FROM LAST STRESS PERIOD



            AREAL INFILTRATION RATE
 READING ON UNIT   19 WITH FORMAT: (10F4.0)            

            1           2           3           4           5           6           7           8           9          10
 ........................................................................................................................
   1   1.2000E-09   0.000       0.000       0.000       0.000       0.000       0.000       0.000       0.000       0.000    
   2   2.1000E-09  2.0000E-09  8.0000E-10  8.5000E-09   0.000       0.000       0.000       0.000       0.000       0.000    
   3   5.0000E-10  1.1000E-09  8.8000E-09  5.5000E-09   0.000       0.000       0.000       0.000       0.000       0.000    
   4   8.5000E-09  1.1000E-09  1.1000E-09  1.1000E-09  2.0000E-09   0.000       0.000       0.000       0.000       0.000    
   5   8.5000E-09  1.1000E-09  1.1000E-09  1.1000E-09  1.1000E-09   0.000       0.000       0.000       0.000       0.000    
   6   8.5000E-09  5.2000E-09  2.1000E-09  1.1000E-09  1.5000E-09   0.000       0.000       0.000       0.000       0.000    
   7   8.5000E-09  5.2000E-09  2.1000E-09  1.2000E-09  2.0000E-09   0.000       0.000       0.000       0.000       0.000    
   8   5.0000E-10  5.2000E-09  2.1000E-09  1.2000E-09  5.0000E-09   0.000       0.000       0.000       0.000       0.000    
   9   5.0000E-10  5.2000E-09  2.1000E-09  1.2000E-09  5.0000E-09   0.000       0.000       0.000       0.000       0.000    
  10   5.0000E-10  5.2000E-09  2.1000E-09  1.2000E-09  5.8000E-09   0.000       0.000       0.000       0.000       0.000    
  11   1.0000E-10  1.1000E-09  1.1000E-09  1.2000E-09  5.0000E-09   0.000       0.000       0.000       0.000       0.000    
  12   1.1000E-09  1.1000E-09  1.1000E-09  1.1000E-09  2.0000E-09   0.000       0.000       0.000       0.000       0.000    
  13   1.1000E-09  2.2000E-09  2.2000E-09  2.1000E-09  1.0000E-09   0.000       0.000       0.000       0.000       0.000    
  14   2.0000E-10  5.5000E-09  5.5000E-09  5.2000E-09  1.0000E-09   0.000       0.000       0.000       0.000       0.000    
  15    0.000      8.8000E-09  8.8000E-09   0.000       0.000       0.000       0.000       0.000       0.000       0.000    

                  ET RATE =  7.500000E-08

 USING ET EXTINCTION DEPTH FROM PREVIOUS STRESS PERIOD. CURRENT PERIOD IS:      10

 USING EXTINCTION WATER CONTENT FROM PREVIOUS STRESS PERIOD. CURRENT PERIOD IS:      10

 USING AIR ENTRY PRESSURE FROM PREVIOUS STRESS PERIOD. CURRENT PERIOD IS:      10

 USING ROOT PRESSURE HEAD FROM PREVIOUS STRESS PERIOD. CURRENT PERIOD IS:      10

 USING ROOT ACTIVITY FROM PREVIOUS STRESS PERIOD. CURRENT PERIOD IS:      10

 PROCESSING AG STRESS PERIOD DATA

 READING AG STRESS PERIOD DATA

 READING IRRIGATION SEGMENT

 READING IRRIGATION WELL

 READING SUPPLEMENTAL WELL

 END PROCESSING AG STRESS PERIOD DATA OPTIONS
 
 SOLVING FOR HEAD 
                                                   Max.-Head-Change                         Max.-Flux-Residual
  Residual-Control   Outer-Iter.   Inner-Iter.     Column Row Layer    Maximum-Head-Change  Column Row Layer    Maximum-Flux-Residual          L2-NORM 
          0                 1           2             5    6     1       0.4154151650E-01       5    6    1         0.2244186556E+01      0.5923643672E+01
          0                 2           2             5    6     1      -0.4634325610E-02       5    6    1        -0.2570492485E+00      0.6798116066E+00
          0                 3           2             5    7     1       0.8951550621E-03       5    6    1         0.5062591011E-01      0.1239265129E+00
          0                 4           1             5    7     1      -0.3561909445E-04       5    6    1        -0.2070602556E-02      0.5068588755E-02

    ------------------------------------------------
       NWT REQUIRED            4 OUTER ITERATIONS 
       AND A TOTAL OF          7 INNER ITERATIONS.
    ------------------------------------------------

 NO OUTPUT CONTROL FOR STRESS PERIOD   10   TIME STEP    1
 
 SOLVING FOR HEAD 
                                                   Max.-Head-Change                         Max.-Flux-Residual
  Residual-Control   Outer-Iter.   Inner-Iter.     Column Row Layer    Maximum-Head-Change  Column Row Layer    Maximum-Flux-Residual          L2-NORM 
          0                 1           2             5    6     1       0.3999068729E-01       5    6    1         0.2159003776E+01      0.5688269711E+01
          0                 2           2             4    7     1      -0.3770866442E-01       5    6    1        -0.2040898804E+01      0.5013473744E+01
          0                 3           2             4    7     1       0.3564503212E-01       5    6    1         0.1967862896E+01      0.4834816329E+01
          0                 4           2             4    7     1      -0.1418356503E-02       5    6    1        -0.8046586561E-01      0.2050330472E+00
          0                 5           1             7   13     1       0.5991349793E-04       7   13    1         0.3432760889E-02      0.4389976082E-02

    ------------------------------------------------
       NWT REQUIRED            5 OUTER ITERATIONS 
       AND A TOTAL OF          9 INNER ITERATIONS.
    ------------------------------------------------

 NO OUTPUT CONTROL FOR STRESS PERIOD   10   TIME STEP    2
 
 SOLVING FOR HEAD 
                                                   Max.-Head-Change                         Max.-Flux-Residual
  Residual-Control   Outer-Iter.   Inner-Iter.     Column Row Layer    Maximum-Head-Change  Column Row Layer    Maximum-Flux-Residual          L2-NORM 
          0                 1           2             5    7     1       0.3893638988E-01       5    6    1         0.2078412610E+01      0.5533210807E+01
          0                 2           2             5    7     1      -0.3895894974E-02       5    6    1        -0.2137212225E+00      0.5740090981E+00
          0                 3           2             5    7     1       0.2342993653E-03       5    6    1         0.1323257817E-01      0.3624399361E-01
          0                 4           1             4   13     1      -0.1789255958E-04       4   13    1        -0.1116253587E-02      0.3198590167E-02

    ------------------------------------------------
       NWT REQUIRED            4 OUTER ITERATIONS 
       AND A TOTAL OF          7 INNER ITERATIONS.
    ------------------------------------------------

 NO OUTPUT CONTROL FOR STRESS PERIOD   10   TIME STEP    3
 
 SOLVING FOR HEAD 
                                                   Max.-Head-Change                         Max.-Flux-Residual
  Residual-Control   Outer-Iter.   Inner-Iter.     Column Row Layer    Maximum-Head-Change  Column Row Layer    Maximum-Flux-Residual          L2-NORM 
          0                 1           2             5    7     1       0.3813743493E-01       5    7    1         0.2023715874E+01      0.5374785555E+01
          0                 2           2             4    7     1      -0.3766348697E-01       5    7    1        -0.2027371168E+01      0.4986851742E+01
          0                 3           2             4    7     1       0.3564195488E-01       5    7    1         0.1966915797E+01      0.4833008766E+01
          0                 4           2             4    7     1      -0.1418234086E-02       5    7    1        -0.8043720840E-01      0.2050181745E+00
          0                 5           1             7   13     1       0.6020860968E-04       7   13    1         0.3449662057E-02      0.4403373368E-02

    ------------------------------------------------
       NWT REQUIRED            5 OUTER ITERATIONS 
       AND A TOTAL OF          9 INNER ITERATIONS.
    ------------------------------------------------

 NO OUTPUT CONTROL FOR STRESS PERIOD   10   TIME STEP    4
 
 SOLVING FOR HEAD 
                                                   Max.-Head-Change                         Max.-Flux-Residual
  Residual-Control   Outer-Iter.   Inner-Iter.     Column Row Layer    Maximum-Head-Change  Column Row Layer    Maximum-Flux-Residual          L2-NORM 
          0                 1           2             4    7     1       0.3737493985E-01       5    7    1         0.1982078393E+01      0.5235436242E+01
          0                 2           2             4    7     1      -0.3765873435E-02       5    7    1        -0.2052016989E+00      0.5471883391E+00
          0                 3           2             4    7     1       0.2853661623E-03       5    7    1         0.1595998820E-01      0.4167632224E-01
          0                 4           1             4    7     1      -0.4714267637E-04       5    7    1        -0.2682350996E-02      0.6718177389E-02

    ------------------------------------------------
       NWT REQUIRED            4 OUTER ITERATIONS 
       AND A TOTAL OF          7 INNER ITERATIONS.
    ------------------------------------------------

 NO OUTPUT CONTROL FOR STRESS PERIOD   10   TIME STEP    5
 
 SOLVING FOR HEAD 
                                                   Max.-Head-Change                         Max.-Flux-Residual
  Residual-Control   Outer-Iter.   Inner-Iter.     Column Row Layer    Maximum-Head-Change  Column Row Layer    Maximum-Flux-Residual          L2-NORM 
          0                 1           2             4    7     1       0.3708801636E-01       4    7    1         0.1941998310E+01      0.5091665692E+01
          0                 2           2             4    7     1      -0.3760957310E-01       4    7    1        -0.2019200075E+01      0.4962357291E+01
          0                 3           2             4    7     1       0.3563827546E-01       4    7    1         0.1966343747E+01      0.4831336241E+01
          0                 4           2             4    7     1      -0.1418087704E-02       4    7    1        -0.8042264767E-01      0.2050050326E+00
          0                 5           1             7   13     1       0.6048380642E-04       7   13    1         0.3465421031E-02      0.4414730066E-02

    ------------------------------------------------
       NWT REQUIRED            5 OUTER ITERATIONS 
       AND A TOTAL OF          9 INNER ITERATIONS.
    ------------------------------------------------

 NO OUTPUT CONTROL FOR STRESS PERIOD   10   TIME STEP    6
 
 SOLVING FOR HEAD 
                                                   Max.-Head-Change                         Max.-Flux-Residual
  Residual-Control   Outer-Iter.   Inner-Iter.     Column Row Layer    Maximum-Head-Change  Column Row Layer    Maximum-Flux-Residual          L2-NORM 
          0                 1           2             4    7     1       0.3678182276E-01       4    7    1         0.1927048260E+01      0.4965927398E+01
          0                 2           2             4    7     1      -0.3714813347E-02       4    7    1        -0.2000551998E+00      0.5214910847E+00
          0                 3           2             4    7     1       0.2775528823E-03       4    7    1         0.1536047982E-01      0.3934972305E-01
          0                 4           1             4    7     1      -0.5378041631E-04       4    7    1        -0.3051902069E-02      0.7597346003E-02

    ------------------------------------------------
       NWT REQUIRED            4 OUTER ITERATIONS 
       AND A TOTAL OF          7 INNER ITERATIONS.
    ------------------------------------------------

 NO OUTPUT CONTROL FOR STRESS PERIOD   10   TIME STEP    7
 
 SOLVING FOR HEAD 
                                                   Max.-Head-Change                         Max.-Flux-Residual
  Residual-Control   Outer-Iter.   Inner-Iter.     Column Row Layer    Maximum-Head-Change  Column Row Layer    Maximum-Flux-Residual          L2-NORM 
          0                 1           2             4    7     1       0.3645984798E-01       4    7    1         0.1911179351E+01      0.4834904045E+01
          0                 2           2             4    7     1      -0.3754845817E-01       4    7    1        -0.2016118405E+01      0.4939761855E+01
          0                 3           2             4    7     1       0.3563409948E-01       4    7    1         0.1966128009E+01      0.4829786058E+01
          0                 4           2             4    7     1      -0.1417921559E-02       4    7    1        -0.8041377685E-01      0.2049977204E+00
          0                 5           1             7   13     1       0.6074090607E-04       7   13    1         0.3480145161E-02      0.4427519229E-02

    ------------------------------------------------
       NWT REQUIRED            5 OUTER ITERATIONS 
       AND A TOTAL OF          9 INNER ITERATIONS.
    ------------------------------------------------

 NO OUTPUT CONTROL FOR STRESS PERIOD   10   TIME STEP    8
 
 SOLVING FOR HEAD 
                                                   Max.-Head-Change                         Max.-Flux-Residual
  Residual-Control   Outer-Iter.   Inner-Iter.     Column Row Layer    Maximum-Head-Change  Column Row Layer    Maximum-Flux-Residual          L2-NORM 
          0                 1           2             4    7     1       0.3612221899E-01       4    7    1         0.1894412411E+01      0.4720998996E+01
          0                 2           2             4    7     1      -0.3644201677E-02       4    7    1        -0.1964454520E+00      0.4966585023E+00
          0                 3           2             4    7     1       0.3056327742E-03       4    7    1         0.1692237615E-01      0.4176470028E-01
          0                 4           1             4    7     1      -0.3324517139E-04       4    7    1        -0.1887826331E-02      0.4676133771E-02

    ------------------------------------------------
       NWT REQUIRED            4 OUTER ITERATIONS 
       AND A TOTAL OF          7 INNER ITERATIONS.
    ------------------------------------------------

 NO OUTPUT CONTROL FOR STRESS PERIOD   10   TIME STEP    9
 
 SOLVING FOR HEAD 
                                                   Max.-Head-Change                         Max.-Flux-Residual
  Residual-Control   Outer-Iter.   Inner-Iter.     Column Row Layer    Maximum-Head-Change  Column Row Layer    Maximum-Flux-Residual          L2-NORM 
          0                 1           2             4    7     1       0.3577184680E-01       4    7    1         0.1876897477E+01      0.4600831870E+01
          0                 2           2             4    7     1      -0.3747919829E-01       4    7    1        -0.2012565941E+01      0.4918534119E+01
          0                 3           2             4    7     1       0.3562710793E-01       4    7    1         0.1965754864E+01      0.4828020150E+01
          0                 4           2             4    7     1      -0.1417643375E-02       4    7    1        -0.8039846986E-01      0.2049720366E+00
          0                 5           1             7   13     1       0.6096668333E-04       7   13    1         0.3493070179E-02      0.4437115750E-02

    ------------------------------------------------
       NWT REQUIRED            5 OUTER ITERATIONS 
       AND A TOTAL OF          9 INNER ITERATIONS.
    ------------------------------------------------

 NO OUTPUT CONTROL FOR STRESS PERIOD   10   TIME STEP   10
 
 SOLVING FOR HEAD 
                                                   Max.-Head-Change                         Max.-Flux-Residual
  Residual-Control   Outer-Iter.   Inner-Iter.     Column Row Layer    Maximum-Head-Change  Column Row Layer    Maximum-Flux-Residual          L2-NORM 
          0                 1           2             4    7     1       0.3540916064E-01       4    7    1         0.1858666921E+01      0.4497280477E+01
          0                 2           2             4    7     1      -0.3566527860E-02       4    7    1        -0.1924247667E+00      0.4737028913E+00
          0                 3           2             4    7     1       0.2989871917E-03       4    7    1         0.1656609830E-01      0.4000337747E-01
          0                 4           1             4    7     1      -0.2988820599E-04       4    7    1        -0.1697871836E-02      0.4171941741E-02

    ------------------------------------------------
       NWT REQUIRED            4 OUTER ITERATIONS 
       AND A TOTAL OF          7 INNER ITERATIONS.
    ------------------------------------------------

 NO OUTPUT CONTROL FOR STRESS PERIOD   10   TIME STEP   11
 
 SOLVING FOR HEAD 
                                                   Max.-Head-Change                         Max.-Flux-Residual
  Residual-Control   Outer-Iter.   Inner-Iter.     Column Row Layer    Maximum-Head-Change  Column Row Layer    Maximum-Flux-Residual          L2-NORM 
          0                 1           2             4    7     1       0.3503647963E-01       4    7    1         0.1839841647E+01      0.4386710465E+01
          0                 2           2             4    7     1      -0.3732893657E-01       4    7    1        -0.2004635956E+01      0.4888738643E+01
          0                 3           2             4    7     1       0.3554028423E-01       4    7    1         0.1960975214E+01      0.4815574452E+01
          0                 4           2             4    7     1      -0.1414188559E-02       4    7    1        -0.8020294104E-01      0.2044226184E+00
          0                 5           1             7   13     1       0.6074161753E-04       7   13    1         0.3480182569E-02      0.4414402843E-02

    ------------------------------------------------
       NWT REQUIRED            5 OUTER ITERATIONS 
       AND A TOTAL OF          9 INNER ITERATIONS.
    ------------------------------------------------

 NO OUTPUT CONTROL FOR STRESS PERIOD   10   TIME STEP   12
 
 SOLVING FOR HEAD 
                                                   Max.-Head-Change                         Max.-Flux-Residual
  Residual-Control   Outer-Iter.   Inner-Iter.     Column Row Layer    Maximum-Head-Change  Column Row Layer    Maximum-Flux-Residual          L2-NORM 
          0                 1           2             4    7     1       0.3465433134E-01       4    7    1         0.1820458176E+01      0.4292242731E+01
          0                 2           2             4    7     1      -0.3498999681E-02       4    7    1        -0.1889205221E+00      0.4541229212E+00
          0                 3           2             4    7     1       0.2960884421E-03       4    7    1         0.1641457963E-01      0.3885371400E-01
          0                 4           1             4    7     1      -0.3187068531E-04       4    7    1        -0.1810646755E-02      0.4420593788E-02

    ------------------------------------------------
       NWT REQUIRED            4 OUTER ITERATIONS 
       AND A TOTAL OF          7 INNER ITERATIONS.
    ------------------------------------------------

 NO OUTPUT CONTROL FOR STRESS PERIOD   10   TIME STEP   13
 
 SOLVING FOR HEAD 
                                                   Max.-Head-Change                         Max.-Flux-Residual
  Residual-Control   Outer-Iter.   Inner-Iter.     Column Row Layer    Maximum-Head-Change  Column Row Layer    Maximum-Flux-Residual          L2-NORM 
          0                 1           2             4    7     1       0.3426483428E-01       4    7    1         0.1800626311E+01      0.4190247903E+01
          0                 2           2             4    7     1      -0.3717512073E-01       4    7    1        -0.1996488080E+01      0.4860316771E+01
          0                 3           2             4    7     1       0.3545317955E-01       4    7    1         0.1956178407E+01      0.4803225661E+01
          0                 4           2             4    7     1      -0.1410708064E-02       4    7    1        -0.8000671223E-01      0.2031271667E+00
          0                 5           1             7   13     1       0.6050337351E-04       7   13    1         0.3466535230E-02      0.4403761231E-02

    ------------------------------------------------
       NWT REQUIRED            5 OUTER ITERATIONS 
       AND A TOTAL OF          9 INNER ITERATIONS.
    ------------------------------------------------

 NO OUTPUT CONTROL FOR STRESS PERIOD   10   TIME STEP   14
 
 SOLVING FOR HEAD 
                                                   Max.-Head-Change                         Max.-Flux-Residual
  Residual-Control   Outer-Iter.   Inner-Iter.     Column Row Layer    Maximum-Head-Change  Column Row Layer    Maximum-Flux-Residual          L2-NORM 
          0                 1           2             4    7     1       0.3386811027E-01       4    7    1         0.1780361063E+01      0.4104355853E+01
          0                 2           2             4    7     1      -0.3469207524E-02       4    7    1        -0.1874164843E+00      0.4415294551E+00
          0                 3           2             4    7     1       0.3072087970E-03       4    7    1         0.1703478892E-01      0.3964366283E-01
          0                 4           1             4    7     1      -0.5106648322E-04       4    7    1        -0.2899552312E-02      0.7079580058E-02

    ------------------------------------------------
       NWT REQUIRED            4 OUTER ITERATIONS 
       AND A TOTAL OF          7 INNER ITERATIONS.
    ------------------------------------------------

 NO OUTPUT CONTROL FOR STRESS PERIOD   10   TIME STEP   15
 
 SOLVING FOR HEAD 
                                                   Max.-Head-Change                         Max.-Flux-Residual
  Residual-Control   Outer-Iter.   Inner-Iter.     Column Row Layer    Maximum-Head-Change  Column Row Layer    Maximum-Flux-Residual          L2-NORM 
          0                 1           2             4    7     1       0.3346655229E-01       4    7    1         0.1759785684E+01      0.4010339575E+01
          0                 2           2             4    7     1      -0.3703418533E-01       4    7    1        -0.1989009013E+01      0.4835289389E+01
          0                 3           2             4    7     1       0.3538203292E-01       4    7    1         0.1952259784E+01      0.4793131021E+01
          0                 4           2             4    7     1      -0.1407891565E-02       4    7    1        -0.7984640233E-01      0.2034531285E+00
          0                 5           1             7   13     1       0.6033036520E-04       7   13    1         0.3456446007E-02      0.4396305541E-02

    ------------------------------------------------
       NWT REQUIRED            5 OUTER ITERATIONS 
       AND A TOTAL OF          9 INNER ITERATIONS.
    ------------------------------------------------

 NO OUTPUT CONTROL FOR STRESS PERIOD   10   TIME STEP   16
 
 SOLVING FOR HEAD 
                                                   Max.-Head-Change                         Max.-Flux-Residual
  Residual-Control   Outer-Iter.   Inner-Iter.     Column Row Layer    Maximum-Head-Change  Column Row Layer    Maximum-Flux-Residual          L2-NORM 
          0                 1           2             4    7     1       0.3305975355E-01       4    7    1         0.1738890204E+01      0.3931438066E+01
          0                 2           2             4    7     1      -0.3463438627E-02       4    7    1        -0.1871801970E+00      0.4334007160E+00
          0                 3           2             4    7     1       0.2953561951E-03       4    7    1         0.1638596970E-01      0.3761065257E-01
          0                 4           1             4    7     1      -0.9214042204E-04       4    7    1        -0.5229152708E-02      0.1285313688E-01

    ------------------------------------------------
       NWT REQUIRED            4 OUTER ITERATIONS 
       AND A TOTAL OF          7 INNER ITERATIONS.
    ------------------------------------------------

 NO OUTPUT CONTROL FOR STRESS PERIOD   10   TIME STEP   17
 
 SOLVING FOR HEAD 
                                                   Max.-Head-Change                         Max.-Flux-Residual
  Residual-Control   Outer-Iter.   Inner-Iter.     Column Row Layer    Maximum-Head-Change  Column Row Layer    Maximum-Flux-Residual          L2-NORM 
          0                 1           2             4    7     1       0.3265060899E-01       4    7    1         0.1717818212E+01      0.3844221084E+01
          0                 2           2             4    7     1      -0.3302556520E-01       4    7    1        -0.1773916779E+01      0.4301112293E+01
          0                 3           2             4    7     1       0.3128666810E-01       4    7    1         0.1726307883E+01      0.4237566123E+01
          0                 4           2             4    7     1      -0.1244931573E-02       4    7    1        -0.7060506641E-01      0.1773019704E+00
          0                 5           1             7   13     1       0.3883824989E-04       7   13    1         0.2225521514E-02      0.3267058173E-02

    ------------------------------------------------
       NWT REQUIRED            5 OUTER ITERATIONS 
       AND A TOTAL OF          9 INNER ITERATIONS.
    ------------------------------------------------

 NO OUTPUT CONTROL FOR STRESS PERIOD   10   TIME STEP   18
 
 SOLVING FOR HEAD 
                                                   Max.-Head-Change                         Max.-Flux-Residual
  Residual-Control   Outer-Iter.   Inner-Iter.     Column Row Layer    Maximum-Head-Change  Column Row Layer    Maximum-Flux-Residual          L2-NORM 
          0                 1           2             4    7     1       0.3223722663E-01       4    7    1         0.1696488865E+01      0.3770495825E+01
          0                 2           2             4    7     1      -0.8450781836E-02       4    7    1        -0.4549236047E+00      0.1064706400E+01
          0                 3           2             4    7     1       0.5516105611E-02       4    7    1         0.3044405271E+00      0.7433332185E+00
          0                 4           2             4    7     1      -0.2440958837E-03       4    7    1        -0.1384703049E-01      0.3373509794E-01
          0                 5           1             4   13     1      -0.3067001406E-04       4   13    1        -0.1912148773E-02      0.4716962872E-02

    ------------------------------------------------
       NWT REQUIRED            5 OUTER ITERATIONS 
       AND A TOTAL OF          9 INNER ITERATIONS.
    ------------------------------------------------

 NO OUTPUT CONTROL FOR STRESS PERIOD   10   TIME STEP   19
 
 SOLVING FOR HEAD 
                                                   Max.-Head-Change                         Max.-Flux-Residual
  Residual-Control   Outer-Iter.   Inner-Iter.     Column Row Layer    Maximum-Head-Change  Column Row Layer    Maximum-Flux-Residual          L2-NORM 
          0                 1           2             4    7     1       0.3182317699E-01       4    7    1         0.1675078273E+01      0.3690416288E+01
          0                 2           2             4    7     1      -0.3321536906E-01       4    7    1        -0.1784152019E+01      0.4322253568E+01
          0                 3           2             4    7     1       0.3156253227E-01       4    7    1         0.1741533539E+01      0.4274703288E+01
          0                 4           2             4    7     1      -0.1255908987E-02       4    7    1        -0.7122774914E-01      0.1790655003E+00
          0                 5           1             7   13     1       0.4053651688E-04       7   13    1         0.2322850254E-02      0.3349674910E-02

    ------------------------------------------------
       NWT REQUIRED            5 OUTER ITERATIONS 
       AND A TOTAL OF          9 INNER ITERATIONS.
    ------------------------------------------------

 NO OUTPUT CONTROL FOR STRESS PERIOD   10   TIME STEP   20
 
 SOLVING FOR HEAD 
                                                   Max.-Head-Change                         Max.-Flux-Residual
  Residual-Control   Outer-Iter.   Inner-Iter.     Column Row Layer    Maximum-Head-Change  Column Row Layer    Maximum-Flux-Residual          L2-NORM 
          0                 1           2             4    7     1       0.3140649901E-01       4    7    1         0.1653499176E+01      0.3622328860E+01
          0                 2           2             4    7     1      -0.5937700980E-02       4    7    1        -0.3200756920E+00      0.7347164657E+00
          0                 3           2             4    7     1       0.2995077955E-02       4    7    1         0.1653476577E+00      0.4012823496E+00
          0                 4           1             4    7     1      -0.9695462541E-04       4    7    1        -0.5502451692E-02      0.1329498255E-01

    ------------------------------------------------
       NWT REQUIRED            4 OUTER ITERATIONS 
       AND A TOTAL OF          7 INNER ITERATIONS.
    ------------------------------------------------

 NO OUTPUT CONTROL FOR STRESS PERIOD   10   TIME STEP   21
 
 SOLVING FOR HEAD 
                                                   Max.-Head-Change                         Max.-Flux-Residual
  Residual-Control   Outer-Iter.   Inner-Iter.     Column Row Layer    Maximum-Head-Change  Column Row Layer    Maximum-Flux-Residual          L2-NORM 
          0                 1           2             4    7     1       0.3099009029E-01       4    7    1         0.1631894422E+01      0.3546534227E+01
          0                 2           2             4    7     1      -0.3234016757E-01       4    7    1        -0.1737209656E+01      0.4203739402E+01
          0                 3           2             4    7     1       0.3073036715E-01       4    7    1         0.1695623593E+01      0.4161683349E+01
          0                 4           2             4    7     1      -0.1222796038E-02       4    7    1        -0.6935002568E-01      0.1738852630E+00
          0                 5           1             7   13     1       0.3649781932E-04       7   13    1         0.2091535392E-02      0.3144601999E-02

    ------------------------------------------------
       NWT REQUIRED            5 OUTER ITERATIONS 
       AND A TOTAL OF          9 INNER ITERATIONS.
    ------------------------------------------------

 NO OUTPUT CONTROL FOR STRESS PERIOD   10   TIME STEP   22
 
 SOLVING FOR HEAD 
                                                   Max.-Head-Change                         Max.-Flux-Residual
  Residual-Control   Outer-Iter.   Inner-Iter.     Column Row Layer    Maximum-Head-Change  Column Row Layer    Maximum-Flux-Residual          L2-NORM 
          0                 1           2             4    7     1       0.3057277576E-01       4    7    1         0.1610216290E+01      0.3483238134E+01
          0                 2           2             4    7     1      -0.8486432828E-02       4    7    1        -0.4569006163E+00      0.1062466659E+01
          0                 3           2             4    7     1       0.5697606526E-02       4    7    1         0.3144597854E+00      0.7675744195E+00
          0                 4           2             4    7     1      -0.2158522649E-03       4    7    1        -0.1224548135E-01      0.2979772827E-01
          0                 5           1             4   13     1      -0.2788056404E-04       4   13    1        -0.1738207954E-02      0.3263264254E-02

    ------------------------------------------------
       NWT REQUIRED            5 OUTER ITERATIONS 
       AND A TOTAL OF          9 INNER ITERATIONS.
    ------------------------------------------------

 NO OUTPUT CONTROL FOR STRESS PERIOD   10   TIME STEP   23
 
 SOLVING FOR HEAD 
                                                   Max.-Head-Change                         Max.-Flux-Residual
  Residual-Control   Outer-Iter.   Inner-Iter.     Column Row Layer    Maximum-Head-Change  Column Row Layer    Maximum-Flux-Residual          L2-NORM 
          0                 1           2             4    7     1       0.3015730062E-01       4    7    1         0.1588598131E+01      0.3412947880E+01
          0                 2           2             4    7     1      -0.3074207112E-01       4    7    1        -0.1651453888E+01      0.3990692342E+01
          0                 3           2             4    7     1       0.2914571242E-01       4    7    1         0.1608194579E+01      0.3946701718E+01
          0                 4           2             4    7     1      -0.1159740550E-02       4    7    1        -0.6577420139E-01      0.1641144301E+00
          0                 5           1             7   13     1       0.2868586555E-04       7   13    1         0.1644104162E-02      0.2765090808E-02

    ------------------------------------------------
       NWT REQUIRED            5 OUTER ITERATIONS 
       AND A TOTAL OF          9 INNER ITERATIONS.
    ------------------------------------------------

 NO OUTPUT CONTROL FOR STRESS PERIOD   10   TIME STEP   24
 
 SOLVING FOR HEAD 
                                                   Max.-Head-Change                         Max.-Flux-Residual
  Residual-Control   Outer-Iter.   Inner-Iter.     Column Row Layer    Maximum-Head-Change  Column Row Layer    Maximum-Flux-Residual          L2-NORM 
          0                 1           2             4    7     1       0.2974148745E-01       4    7    1         0.1566941411E+01      0.3353752230E+01
          0                 2           2             4    7     1      -0.9167522207E-02       4    7    1        -0.4934703490E+00      0.1149359061E+01
          0                 3           2             4    7     1       0.6482297908E-02       4    7    1         0.3577559096E+00      0.8738731551E+00
          0                 4           2             4    7     1      -0.2787327647E-03       4    7    1        -0.1581162307E-01      0.3854177494E-01
          0                 5           1             4   13     1      -0.3225705483E-04       4   13    1        -0.2010925676E-02      0.3617518305E-02

    ------------------------------------------------
       NWT REQUIRED            5 OUTER ITERATIONS 
       AND A TOTAL OF          9 INNER ITERATIONS.
    ------------------------------------------------

 NO OUTPUT CONTROL FOR STRESS PERIOD   10   TIME STEP   25
 
 SOLVING FOR HEAD 
                                                   Max.-Head-Change                         Max.-Flux-Residual
  Residual-Control   Outer-Iter.   Inner-Iter.     Column Row Layer    Maximum-Head-Change  Column Row Layer    Maximum-Flux-Residual          L2-NORM 
          0                 1           2             4    7     1       0.2932866040E-01       4    7    1         0.1545409026E+01      0.3287862578E+01
          0                 2           2             4    7     1      -0.2930483669E-01       4    7    1        -0.1574321105E+01      0.3799574596E+01
          0                 3           2             4    7     1       0.2772810656E-01       4    7    1         0.1529981445E+01      0.3754413762E+01
          0                 4           2             4    7     1      -0.1103332181E-02       4    7    1        -0.6257530371E-01      0.1555219707E+00
          0                 5           1             7   13     1       0.2186007502E-04       7   13    1         0.1253156926E-02      0.2455111691E-02

    ------------------------------------------------
       NWT REQUIRED            5 OUTER ITERATIONS 
       AND A TOTAL OF          9 INNER ITERATIONS.
    ------------------------------------------------

 NO OUTPUT CONTROL FOR STRESS PERIOD   10   TIME STEP   26
 
 SOLVING FOR HEAD 
                                                   Max.-Head-Change                         Max.-Flux-Residual
  Residual-Control   Outer-Iter.   Inner-Iter.     Column Row Layer    Maximum-Head-Change  Column Row Layer    Maximum-Flux-Residual          L2-NORM 
          0                 1           2             4    7     1       0.2891623502E-01       4    7    1         0.1523881650E+01      0.3232347157E+01
          0                 2           2             4    7     1      -0.1094340180E-01       4    7    1        -0.5887918891E+00      0.1380718759E+01
          0                 3           2             4    7     1       0.8438812813E-02       4    7    1         0.4657061800E+00      0.1139090074E+01
          0                 4           2             4    7     1      -0.3304019941E-03       4    7    1        -0.1874178423E-01      0.4581118342E-01
          0                 5           1             4   13     1      -0.2618238646E-04       4   13    1        -0.1631997530E-02      0.2847624396E-02

    ------------------------------------------------
       NWT REQUIRED            5 OUTER ITERATIONS 
       AND A TOTAL OF          9 INNER ITERATIONS.
    ------------------------------------------------

 NO OUTPUT CONTROL FOR STRESS PERIOD   10   TIME STEP   27
 
 SOLVING FOR HEAD 
                                                   Max.-Head-Change                         Max.-Flux-Residual
  Residual-Control   Outer-Iter.   Inner-Iter.     Column Row Layer    Maximum-Head-Change  Column Row Layer    Maximum-Flux-Residual          L2-NORM 
          0                 1           2             4    7     1       0.2850751692E-01       4    7    1         0.1502521314E+01      0.3170631107E+01
          0                 2           2             4    7     1      -0.2795334929E-01       4    7    1        -0.1501781546E+01      0.3620375783E+01
          0                 3           2             4    7     1       0.2639904556E-01       4    7    1         0.1456652927E+01      0.3574169162E+01
          0                 4           2             4    7     1      -0.1050447149E-02       4    7    1        -0.5957618644E-01      0.1476024172E+00
          0                 5           1             7   13     1       0.1557636657E-04       7   13    1         0.8932501323E-03      0.2196767900E-02

    ------------------------------------------------
       NWT REQUIRED            5 OUTER ITERATIONS 
       AND A TOTAL OF          9 INNER ITERATIONS.
    ------------------------------------------------

 NO OUTPUT CONTROL FOR STRESS PERIOD   10   TIME STEP   28
 
 SOLVING FOR HEAD 
                                                   Max.-Head-Change                         Max.-Flux-Residual
  Residual-Control   Outer-Iter.   Inner-Iter.     Column Row Layer    Maximum-Head-Change  Column Row Layer    Maximum-Flux-Residual          L2-NORM 
          0                 1           2             4    7     1       0.2810015389E-01       4    7    1         0.1481217928E+01      0.3118453394E+01
          0                 2           2             4    7     1      -0.1173892946E-01       4    7    1        -0.6314859747E+00      0.1484415967E+01
          0                 3           2             4    7     1       0.8866275337E-02       4    7    1         0.4892913805E+00      0.1197470382E+01
          0                 4           2             4    7     1      -0.5691001052E-03       4    7    1        -0.3227889191E-01      0.7886527953E-01
          0                 5           2             4    7     1       0.6789783178E-03       4    7    1         0.3957660693E-01      0.9763531491E-01
          0                 6           1             4    7     1       0.9441103445E-04       5    8    1         0.5503466265E-02      0.1360897702E-01

    ------------------------------------------------
       NWT REQUIRED            6 OUTER ITERATIONS 
       AND A TOTAL OF         11 INNER ITERATIONS.
    ------------------------------------------------

 NO OUTPUT CONTROL FOR STRESS PERIOD   10   TIME STEP   29
 
 SOLVING FOR HEAD 
                                                   Max.-Head-Change                         Max.-Flux-Residual
  Residual-Control   Outer-Iter.   Inner-Iter.     Column Row Layer    Maximum-Head-Change  Column Row Layer    Maximum-Flux-Residual          L2-NORM 
          0                 1           2             4    7     1       0.2769654505E-01       4    7    1         0.1460090161E+01      0.3060388255E+01
          0                 2           2             4    7     1      -0.2530694218E-01       4    7    1        -0.1359730806E+01      0.3270769098E+01
          0                 3           2             4    7     1       0.2372113971E-01       4    7    1         0.1308901820E+01      0.3211078430E+01
          0                 4           2             4    7     1      -0.9438899241E-03       4    7    1        -0.5353324104E-01      0.1320903624E+00
          0                 5           1             4    7     1       0.1163856626E-04       4    7    1         0.6783544113E-03      0.1802775153E-02

    ------------------------------------------------
       NWT REQUIRED            5 OUTER ITERATIONS 
       AND A TOTAL OF          9 INNER ITERATIONS.
    ------------------------------------------------

 NO OUTPUT CONTROL FOR STRESS PERIOD   10   TIME STEP   30



 STREAM LISTING     PERIOD     10   STEP       30

 LAYER ROW COL. STREAM  RCH.  FLOW INTO     FLOW TO   FLOW OUT OF   OVRLND.     DIRECT     STREAM       STREAM     STREAM     STREAM   STREAMBED  STREAMBED
                SEG.NO.  NO.  STRM. RCH.    AQUIFER    STRM. RCH.    RUNOFF     PRECIP       ET          HEAD       DEPTH      WIDTH   CONDCTNC.   GRADIENT

   1    1    1     1     1    3.5250E+01  2.8720E-01   3.4963E+01  0.000E+00  0.000E+00  0.000E+00  1.09434E+03  1.294E+00  1.486E+01  6.688E-02  1.431E+00
   1    2    2     1     2    3.4963E+01  4.4467E-01   3.4518E+01  0.000E+00  0.000E+00  0.000E+00  1.08935E+03  1.291E+00  1.480E+01  1.036E-01  1.430E+00
   1    3    3     1     3    3.4518E+01  3.7912E-01   3.4139E+01  0.000E+00  0.000E+00  0.000E+00  1.08371E+03  1.288E+00  1.474E+01  8.841E-02  1.429E+00
   1    3    4     1     4    3.4139E+01  3.4902E-01   3.3790E+01  0.000E+00  0.000E+00  0.000E+00  1.07869E+03  1.285E+00  1.468E+01  8.145E-02  1.428E+00
   1    4    5     2     1    3.1790E+01  3.4244E-01   3.1447E+01  0.000E+00  0.000E+00  0.000E+00  1.07332E+03  1.390E+00  1.200E+01  7.800E-02  1.463E+00
   1    5    6     2     2    3.1447E+01  2.6294E-01   3.1184E+01  0.000E+00  0.000E+00  0.000E+00  1.06789E+03  1.382E+00  1.200E+01  6.000E-02  1.461E+00
   1    6    6     2     3    3.1184E+01  2.6252E-01   3.0922E+01  0.000E+00  0.000E+00  0.000E+00  1.06317E+03  1.375E+00  1.200E+01  6.000E-02  1.458E+00
   1    7    6     2     4    3.0922E+01  2.6210E-01   3.0660E+01  0.000E+00  0.000E+00  0.000E+00  1.05844E+03  1.368E+00  1.200E+01  6.000E-02  1.456E+00
   1    8    6     2     5    3.0660E+01  2.6168E-01   3.0398E+01  0.000E+00  0.000E+00  0.000E+00  1.05372E+03  1.361E+00  1.200E+01  6.000E-02  1.454E+00
   1    3    5     3     1    2.0000E+00  2.8252E-01   1.7175E+00  0.000E+00  0.000E+00  0.000E+00  1.07555E+03  1.909E+00  9.636E+00  7.227E-02  1.955E+00
   1    3    6     3     2    1.7175E+00  2.4905E-01   1.4684E+00  0.000E+00  0.000E+00  0.000E+00  1.07264E+03  1.727E+00  8.909E+00  6.682E-02  1.864E+00
   1    3    7     3     3    1.4684E+00  1.9718E-01   1.2712E+00  0.000E+00  0.000E+00  0.000E+00  1.06987E+03  1.555E+00  8.218E+00  5.547E-02  1.777E+00
   1    4    8     3     4    1.2712E+00  2.2567E-01   1.0456E+00  0.000E+00  0.000E+00  0.000E+00  1.06682E+03  1.364E+00  7.455E+00  6.709E-02  1.682E+00
   1    5    8     3     5    1.0456E+00  1.5790E-01   8.8768E-01  0.000E+00  0.000E+00  0.000E+00  1.06362E+03  1.164E+00  6.655E+00  4.991E-02  1.582E+00
   1    6    8     3     6    8.8768E-01  5.5980E-02   8.3170E-01  0.000E+00  0.000E+00  0.000E+00  1.06158E+03  1.036E+00  6.145E+00  1.844E-02  1.518E+00
   1    5   10     4     1    1.0000E+01  9.0919E-02   9.9091E+00  0.000E+00  0.000E+00  0.000E+00  1.07836E+03  6.368E-01  1.000E+01  2.500E-02  1.212E+00
   1    5    9     4     2    9.9091E+00  1.8158E-01   9.7275E+00  0.000E+00  0.000E+00  0.000E+00  1.07154E+03  6.315E-01  1.000E+01  5.000E-02  1.211E+00
   1    6    8     4     3    9.7275E+00  1.2689E-01   9.6006E+00  0.000E+00  0.000E+00  0.000E+00  1.06381E+03  6.256E-01  1.000E+01  3.500E-02  1.209E+00
   1    6    8     5     1    1.0432E+01  2.2686E-01   1.0205E+01  0.000E+00  0.000E+00  0.000E+00  1.05868E+03  6.790E-01  1.542E+01  6.166E-02  1.226E+00
   1    7    7     5     2    1.0205E+01  2.7894E-01   9.9265E+00  0.000E+00  0.000E+00  0.000E+00  1.05417E+03  6.732E-01  1.519E+01  7.594E-02  1.224E+00
   1    8    7     5     3    9.9265E+00  1.9221E-01   9.7343E+00  0.000E+00  0.000E+00  0.000E+00  1.04992E+03  6.676E-01  1.497E+01  5.241E-02  1.223E+00
   1    8    6     5     4    9.7343E+00  1.3577E-01   9.5985E+00  0.000E+00  0.000E+00  0.000E+00  1.04691E+03  6.637E-01  1.482E+01  3.706E-02  1.221E+00
   1    9    6     6     1    2.5432E+01  2.5380E-01   2.5178E+01  0.000E+00  0.000E+00  0.000E+00  1.04396E+03  1.230E+00  1.200E+01  6.000E-02  1.410E+00
   1   10    7     6     2    2.5178E+01  2.5335E-01   2.4925E+01  0.000E+00  0.000E+00  0.000E+00  1.03940E+03  1.223E+00  1.200E+01  6.000E-02  1.408E+00
   1   11    7     6     3    2.4925E+01  2.5291E-01   2.4672E+01  0.000E+00  0.000E+00  0.000E+00  1.03485E+03  1.215E+00  1.200E+01  6.000E-02  1.405E+00
   1   12    7     6     4    2.4672E+01  2.5246E-01   2.4419E+01  0.000E+00  0.000E+00  0.000E+00  1.03030E+03  1.208E+00  1.200E+01  6.000E-02  1.403E+00
   1   13    7     6     5    2.4419E+01 -3.0197E-03   2.4422E+01  0.000E+00  0.000E+00  0.000E+00  1.02711E+03  1.204E+00  1.200E+01  2.400E-01 -4.194E-03
   1   14    9     7     1    1.5000E+02  1.3357E+00   1.4866E+02  0.000E+00  0.000E+00  0.000E+00  1.03987E+03  2.288E+00  5.529E+01  5.593E-01  7.961E-01
   1   13    8     7     2    1.4866E+02  1.8223E+00   1.4684E+02  0.000E+00  0.000E+00  0.000E+00  1.03478E+03  2.279E+00  5.526E+01  6.148E-01  9.881E-01
   1   13    7     7     3    1.4684E+02  1.4321E+00   1.4541E+02  0.000E+00  0.000E+00  0.000E+00  1.02969E+03  2.271E+00  5.522E+01  5.585E-01  8.548E-01
   1   13    6     8     1    1.6983E+02  8.6918E-01   1.6896E+02  0.000E+00  0.000E+00  0.000E+00  1.02482E+03  2.948E+00  4.275E+01  4.356E-01  6.651E-01
   1   13    5     8     2    1.6896E+02  1.2021E-01   1.6884E+02  0.000E+00  0.000E+00  0.000E+00  1.01857E+03  2.945E+00  4.270E+01  4.352E-01  9.208E-02
   1   13    4     8     3    1.6884E+02 -2.6820E+00   1.7152E+02  0.000E+00  0.000E+00  0.000E+00  1.01233E+03  2.953E+00  4.282E+01  4.364E+00 -2.049E-01
   1   13    3     8     4    1.7152E+02 -3.7833E+00   1.7531E+02  0.000E+00  0.000E+00  0.000E+00  1.00610E+03  2.974E+00  4.313E+01  4.395E+00 -2.869E-01
   1   13    2     8     5    1.7531E+02 -2.6375E+00   1.7795E+02  0.000E+00  0.000E+00  0.000E+00  9.99870E+02  2.995E+00  4.343E+01  4.425E+00 -1.987E-01
   1   13    1     8     6    1.7795E+02 -1.9897E+00   1.7994E+02  0.000E+00  0.000E+00  0.000E+00  9.94885E+02  3.009E+00  4.364E+01  2.668E+00 -2.486E-01
   1    8    6     9     1    1.4565E+01  0.0000E+00   1.4565E+01  0.000E+00  0.000E+00  0.000E+00  1.08159E+03  2.840E+00  4.000E+00  0.000E+00  1.947E+00
   1    8    5     9     2    1.4565E+01  0.0000E+00   1.4565E+01  0.000E+00  0.000E+00  0.000E+00  1.08109E+03  2.840E+00  4.000E+00  0.000E+00  1.947E+00





UNSATURATED ZONE PACKAGE VOLUMETRIC BUDGET FOR  TIME STEP    30 STRESS PERIOD   10
  ------------------------------------------------------------------------------



     CUMULATIVE VOLUMES      L**3       RATES FOR THIS TIME STEP      L**3/T
     ------------------                 ------------------------

           IN:                                      IN:
           ---                                      ---
        INFILTRATION =   588073058.1648          INFILTRATION =          18.9724

          OUT:                                     OUT:
          ----                                     ----
              UZF ET =   484362087.0776                UZF ET =          15.3575
        UZF RECHARGE =       73224.0000          UZF RECHARGE =       0.0000E+00

            IN - OUT =   103637747.0872              IN - OUT =           3.6149

          STORAGE:                                 STORAGE:
          --------                                 --------
      STORAGE CHANGE =   103637735.8500        STORAGE CHANGE =           3.6149

 PERCENT DISCREPANCY IS DIFFERENCE BETWEEN IN-OUT MINUS CHANGE IN STORAGE
 DIVIDED BY THE AVERAGE OF IN AND OUT TIMES 100

 PERCENT DISCREPANCY =           0.00     PERCENT DISCREPANCY =           0.00






1
  VOLUMETRIC BUDGET FOR AGRICULTURAL FIELDS AT  END OF TIME STEP   30, STRESS PERIOD  10
  ------------------------------------------------------------------------------

     CUMULATIVE VOLUMES      L**3       RATES FOR THIS TIME STEP      L**3/T
     ------------------                 ------------------------

           IN:                                      IN:
           ---                                      ---
               AG WELLS  =   146882592.0000                 AG WELLS  =           0.0000
      DIVERSION SEGMENTS =   336900352.0000        DIVERSION SEGMENTS =          14.5647
           GW IRRIGATION =           0.0000             GW IRRIGATION =           0.0000
           SW IRRIGATION =           0.0000             SW IRRIGATION =           0.0000
        SYSTEM LOSSES GW =           0.0000          SYSTEM LOSSES GW =           0.0000
        SYSTEM LOSSES SW =           0.0000          SYSTEM LOSSES SW =           0.0000

                TOTAL IN =   483782944.0000                  TOTAL IN =          14.5647

          OUT:                                     OUT:
          ----                                     ----
               AG WELLS  =           0.0000                 AG WELLS  =           0.0000
      DIVERSION SEGMENTS =           0.0000        DIVERSION SEGMENTS =           0.0000
           GW IRRIGATION =   146882592.0000             GW IRRIGATION =           0.0000
           SW IRRIGATION =   336907040.0000             SW IRRIGATION =          14.5649
        SYSTEM LOSSES GW =           0.0000          SYSTEM LOSSES GW =           0.0000
        SYSTEM LOSSES SW =           0.0000          SYSTEM LOSSES SW =           0.0000

               TOTAL OUT =   483789632.0000                 TOTAL OUT =          14.5649

                IN - OUT =       -6688.0000                  IN - OUT =      -2.9087E-04

     PERCENT DISCREPANCY =          -0.00         PERCENT DISCREPANCY =          -0.00



1
  VOLUMETRIC BUDGET FOR ENTIRE MODEL AT END OF TIME STEP   30, STRESS PERIOD  10
  ------------------------------------------------------------------------------

     CUMULATIVE VOLUMES      L**3       RATES FOR THIS TIME STEP      L**3/T
     ------------------                 ------------------------

           IN:                                      IN:
           ---                                      ---
             STORAGE     =   205525680.0000               STORAGE     =           6.5405
       CONSTANT HEAD     =           0.0000         CONSTANT HEAD     =           0.0000
     HEAD DEP BOUNDS     =     6787969.0000       HEAD DEP BOUNDS     =           0.2858
      STREAM LEAKAGE     =   289034496.0000        STREAM LEAKAGE     =          11.8452
        UZF RECHARGE     =       73223.9531          UZF RECHARGE     =           0.0000
               GW ET     =           0.0000                 GW ET     =           0.0000
     SURFACE LEAKAGE     =           0.0000       SURFACE LEAKAGE     =           0.0000
           AG WELLS      =           0.0000             AG WELLS      =           0.0000

                TOTAL IN =   501421376.0000                  TOTAL IN =          18.6714

          OUT:                                     OUT:
          ----                                     ----
             STORAGE     =    89926960.0000               STORAGE     =           7.2858
       CONSTANT HEAD     =           0.0000         CONSTANT HEAD     =           0.0000
     HEAD DEP BOUNDS     =     6916847.5000       HEAD DEP BOUNDS     =           0.2899
      STREAM LEAKAGE     =   256203120.0000        STREAM LEAKAGE     =          11.0956
        UZF RECHARGE     =           0.0000          UZF RECHARGE     =           0.0000
               GW ET     =     1494030.3750                 GW ET     =           0.0000
     SURFACE LEAKAGE     =           0.0000       SURFACE LEAKAGE     =           0.0000
           AG WELLS      =   146882592.0000             AG WELLS      =           0.0000

               TOTAL OUT =   501423520.0000                 TOTAL OUT =          18.6713

                IN - OUT =       -2144.0000                  IN - OUT =       7.8201E-05

     PERCENT DISCREPANCY =          -0.00         PERCENT DISCREPANCY =           0.00






         TIME SUMMARY AT END OF TIME STEP   30 IN STRESS PERIOD   10
                    SECONDS     MINUTES      HOURS       DAYS        YEARS
                    -----------------------------------------------------------
   TIME STEP LENGTH  87667.      1461.1      24.352      1.0147     2.77799E-03
 STRESS PERIOD TIME 2.63000E+06  43833.      730.56      30.440     8.33397E-02
         TOTAL TIME 2.37564E+07 3.95940E+05  6599.0      274.96     0.75279    
1
1
                            STRESS PERIOD NO.   11, LENGTH =   2630000.    
                            -----------------------------------------------

                              NUMBER OF TIME STEPS =    30

                               MULTIPLIER FOR DELT =     1.000

                            INITIAL TIME STEP SIZE =   87666.66    

 REUSING NON-PARAMETER GHB CELLS FROM LAST STRESS PERIOD

      2 GHB CELLS

 REUSING STREAM SEGMENT DATA FROM LAST STRESS PERIOD



            AREAL INFILTRATION RATE
 READING ON UNIT   19 WITH FORMAT: (10F4.0)            

            1           2           3           4           5           6           7           8           9          10
 ........................................................................................................................
   1   1.2000E-09   0.000       0.000       0.000       0.000       0.000       0.000       0.000       0.000       0.000    
   2   2.1000E-09  2.0000E-09  8.0000E-10  8.5000E-09   0.000       0.000       0.000       0.000       0.000       0.000    
   3   5.0000E-10  1.1000E-09  8.8000E-09  5.5000E-09   0.000       0.000       0.000       0.000       0.000       0.000    
   4   8.5000E-09  1.1000E-09  1.1000E-09  1.1000E-09  2.0000E-09   0.000       0.000       0.000       0.000       0.000    
   5   8.5000E-09  1.1000E-09  1.1000E-09  1.1000E-09  1.1000E-09   0.000       0.000       0.000       0.000       0.000    
   6   8.5000E-09  5.2000E-09  2.1000E-09  1.1000E-09  1.5000E-09   0.000       0.000       0.000       0.000       0.000    
   7   8.5000E-09  5.2000E-09  2.1000E-09  1.2000E-09  2.0000E-09   0.000       0.000       0.000       0.000       0.000    
   8   5.0000E-10  5.2000E-09  2.1000E-09  1.2000E-09  5.0000E-09   0.000       0.000       0.000       0.000       0.000    
   9   5.0000E-10  5.2000E-09  2.1000E-09  1.2000E-09  5.0000E-09   0.000       0.000       0.000       0.000       0.000    
  10   5.0000E-10  5.2000E-09  2.1000E-09  1.2000E-09  5.8000E-09   0.000       0.000       0.000       0.000       0.000    
  11   1.0000E-10  1.1000E-09  1.1000E-09  1.2000E-09  5.0000E-09   0.000       0.000       0.000       0.000       0.000    
  12   1.1000E-09  1.1000E-09  1.1000E-09  1.1000E-09  2.0000E-09   0.000       0.000       0.000       0.000       0.000    
  13   1.1000E-09  2.2000E-09  2.2000E-09  2.1000E-09  1.0000E-09   0.000       0.000       0.000       0.000       0.000    
  14   2.0000E-10  5.5000E-09  5.5000E-09  5.2000E-09  1.0000E-09   0.000       0.000       0.000       0.000       0.000    
  15    0.000      8.8000E-09  8.8000E-09   0.000       0.000       0.000       0.000       0.000       0.000       0.000    

                  ET RATE =  5.000000E-09

 USING ET EXTINCTION DEPTH FROM PREVIOUS STRESS PERIOD. CURRENT PERIOD IS:      11

 USING EXTINCTION WATER CONTENT FROM PREVIOUS STRESS PERIOD. CURRENT PERIOD IS:      11

 USING AIR ENTRY PRESSURE FROM PREVIOUS STRESS PERIOD. CURRENT PERIOD IS:      11

 USING ROOT PRESSURE HEAD FROM PREVIOUS STRESS PERIOD. CURRENT PERIOD IS:      11

 USING ROOT ACTIVITY FROM PREVIOUS STRESS PERIOD. CURRENT PERIOD IS:      11

 PROCESSING AG STRESS PERIOD DATA

 READING AG STRESS PERIOD DATA

 READING IRRIGATION SEGMENT

 READING IRRIGATION WELL

 READING SUPPLEMENTAL WELL

 END PROCESSING AG STRESS PERIOD DATA OPTIONS
 
 SOLVING FOR HEAD 
                                                   Max.-Head-Change                         Max.-Flux-Residual
  Residual-Control   Outer-Iter.   Inner-Iter.     Column Row Layer    Maximum-Head-Change  Column Row Layer    Maximum-Flux-Residual          L2-NORM 
          0                 1           2             4    7     1       0.2729543277E-01       4    7    1         0.1439081566E+01      0.2990731995E+01
          0                 2           2             4    7     1      -0.2655114086E-02       4    7    1        -0.1439090178E+00      0.3058696161E+00
          0                 3           2             4    7     1       0.1808033009E-03       4    7    1         0.1007362745E-01      0.2140232633E-01
          0                 4           1             4    7     1      -0.7194333072E-05       4    7    1        -0.4120119693E-03      0.8749013756E-03

    ------------------------------------------------
       NWT REQUIRED            4 OUTER ITERATIONS 
       AND A TOTAL OF          7 INNER ITERATIONS.
    ------------------------------------------------

 NO OUTPUT CONTROL FOR STRESS PERIOD   11   TIME STEP    1
 
 SOLVING FOR HEAD 
                                                   Max.-Head-Change                         Max.-Flux-Residual
  Residual-Control   Outer-Iter.   Inner-Iter.     Column Row Layer    Maximum-Head-Change  Column Row Layer    Maximum-Flux-Residual          L2-NORM 
          0                 1           2             4    7     1       0.2689791942E-01       4    7    1         0.1418247540E+01      0.2928575629E+01
          0                 2           2             4    7     1      -0.2616446699E-02       4    7    1        -0.1418256036E+00      0.2928478930E+00
          0                 3           2             4    7     1       0.1781701973E-03       4    7    1         0.9927788511E-02      0.2049841482E-01
          0                 4           1             4    7     1      -0.7089559357E-05       4    7    1        -0.4060471529E-03      0.8383554269E-03

    ------------------------------------------------
       NWT REQUIRED            4 OUTER ITERATIONS 
       AND A TOTAL OF          7 INNER ITERATIONS.
    ------------------------------------------------

 NO OUTPUT CONTROL FOR STRESS PERIOD   11   TIME STEP    2
 
 SOLVING FOR HEAD 
                                                   Max.-Head-Change                         Max.-Flux-Residual
  Residual-Control   Outer-Iter.   Inner-Iter.     Column Row Layer    Maximum-Head-Change  Column Row Layer    Maximum-Flux-Residual          L2-NORM 
          0                 1           2             4    7     1       0.2650409333E-01       4    7    1         0.1397592718E+01      0.2877905415E+01
          0                 2           2             4    7     1      -0.2578137972E-02       4    7    1        -0.1397601091E+00      0.2877822088E+00
          0                 3           2             4    7     1       0.1755615169E-03       4    7    1         0.9783203953E-02      0.2014389382E-01
          0                 4           1             4    7     1      -0.6985757435E-05       4    7    1        -0.4001336360E-03      0.8238127382E-03

    ------------------------------------------------
       NWT REQUIRED            4 OUTER ITERATIONS 
       AND A TOTAL OF          7 INNER ITERATIONS.
    ------------------------------------------------

 NO OUTPUT CONTROL FOR STRESS PERIOD   11   TIME STEP    3
 
 SOLVING FOR HEAD 
                                                   Max.-Head-Change                         Max.-Flux-Residual
  Residual-Control   Outer-Iter.   Inner-Iter.     Column Row Layer    Maximum-Head-Change  Column Row Layer    Maximum-Flux-Residual          L2-NORM 
          0                 1           2             4    7     1       0.2611403175E-01       4    7    1         0.1377121702E+01      0.2828679070E+01
          0                 2           2             4    7     1      -0.2540195423E-02       4    7    1        -0.1377129942E+00      0.2828549814E+00
          0                 3           2             4    7     1       0.1729777715E-03       4    7    1         0.9639905953E-02      0.1979912795E-01
          0                 4           1             4    7     1      -0.6882947797E-05       4    7    1        -0.3942727385E-03      0.8097425662E-03

    ------------------------------------------------
       NWT REQUIRED            4 OUTER ITERATIONS 
       AND A TOTAL OF          7 INNER ITERATIONS.
    ------------------------------------------------

 NO OUTPUT CONTROL FOR STRESS PERIOD   11   TIME STEP    4
 
 SOLVING FOR HEAD 
                                                   Max.-Head-Change                         Max.-Flux-Residual
  Residual-Control   Outer-Iter.   Inner-Iter.     Column Row Layer    Maximum-Head-Change  Column Row Layer    Maximum-Flux-Residual          L2-NORM 
          0                 1           2             4    7     1       0.2572819621E-01       4    7    1         0.1356860605E+01      0.2780843600E+01
          0                 2           2             4    7     1      -0.2502663935E-02       4    7    1        -0.1356868708E+00      0.2780781796E+00
          0                 3           2             4    7     1       0.1704220187E-03       4    7    1         0.9498077398E-02      0.1946480756E-01
          0                 4           1             4    7     1      -0.6781252134E-05       4    7    1        -0.3884719517E-03      0.7960707301E-03

    ------------------------------------------------
       NWT REQUIRED            4 OUTER ITERATIONS 
       AND A TOTAL OF          7 INNER ITERATIONS.
    ------------------------------------------------

 NO OUTPUT CONTROL FOR STRESS PERIOD   11   TIME STEP    5
 
 SOLVING FOR HEAD 
                                                   Max.-Head-Change                         Max.-Flux-Residual
  Residual-Control   Outer-Iter.   Inner-Iter.     Column Row Layer    Maximum-Head-Change  Column Row Layer    Maximum-Flux-Residual          L2-NORM 
          0                 1           2             4    7     1       0.2534674205E-01       4    7    1         0.1336818619E+01      0.2734346199E+01
          0                 2           2             4    7     1      -0.2465558632E-02       4    7    1        -0.1336826581E+00      0.2734292902E+00
          0                 3           2             4    7     1       0.1678952869E-03       4    7    1         0.9357782567E-02      0.1913948056E-01
          0                 4           1             4    7     1      -0.6680711200E-05       4    7    1        -0.3827338783E-03      0.7827730648E-03

    ------------------------------------------------
       NWT REQUIRED            4 OUTER ITERATIONS 
       AND A TOTAL OF          7 INNER ITERATIONS.
    ------------------------------------------------

 NO OUTPUT CONTROL FOR STRESS PERIOD   11   TIME STEP    6
 
 SOLVING FOR HEAD 
                                                   Max.-Head-Change                         Max.-Flux-Residual
  Residual-Control   Outer-Iter.   Inner-Iter.     Column Row Layer    Maximum-Head-Change  Column Row Layer    Maximum-Flux-Residual          L2-NORM 
          0                 1           2             4    7     1       0.2496953788E-01       4    7    1         0.1316989057E+01      0.2689109605E+01
          0                 2           2             4    7     1      -0.2428866732E-02       4    7    1        -0.1316996871E+00      0.2689064136E+00
          0                 3           2             4    7     1       0.1653967068E-03       4    7    1         0.9218974690E-02      0.1882296554E-01
          0                 4           1             4    7     1      -0.6581290113E-05       4    7    1        -0.3770566227E-03      0.7698117944E-03

    ------------------------------------------------
       NWT REQUIRED            4 OUTER ITERATIONS 
       AND A TOTAL OF          7 INNER ITERATIONS.
    ------------------------------------------------

 NO OUTPUT CONTROL FOR STRESS PERIOD   11   TIME STEP    7
 
 SOLVING FOR HEAD 
                                                   Max.-Head-Change                         Max.-Flux-Residual
  Residual-Control   Outer-Iter.   Inner-Iter.     Column Row Layer    Maximum-Head-Change  Column Row Layer    Maximum-Flux-Residual          L2-NORM 
          0                 1           2             4    7     1       0.2459698911E-01       4    7    1         0.1297394589E+01      0.2645102455E+01
          0                 2           2             4    7     1      -0.2392627670E-02       4    7    1        -0.1297402253E+00      0.2645063622E+00
          0                 3           2             4    7     1       0.1629289633E-03       4    7    1         0.9081812446E-02      0.1851503317E-01
          0                 4           1             4    7     1      -0.6483096286E-05       4    7    1        -0.3714466766E-03      0.7572305754E-03

    ------------------------------------------------
       NWT REQUIRED            4 OUTER ITERATIONS 
       AND A TOTAL OF          7 INNER ITERATIONS.
    ------------------------------------------------

 NO OUTPUT CONTROL FOR STRESS PERIOD   11   TIME STEP    8
 
 SOLVING FOR HEAD 
                                                   Max.-Head-Change                         Max.-Flux-Residual
  Residual-Control   Outer-Iter.   Inner-Iter.     Column Row Layer    Maximum-Head-Change  Column Row Layer    Maximum-Flux-Residual          L2-NORM 
          0                 1           2             4    7     1       0.2422905665E-01       4    7    1         0.1278034122E+01      0.2602253275E+01
          0                 2           2             4    7     1      -0.2356837646E-02       4    7    1        -0.1278041634E+00      0.2602220478E+00
          0                 3           2             4    7     1       0.1604917973E-03       4    7    1         0.8946288188E-02      0.1821519122E-01
          0                 4           1             4    7     1      -0.6386119128E-05       4    7    1        -0.3659037188E-03      0.7449614968E-03

    ------------------------------------------------
       NWT REQUIRED            4 OUTER ITERATIONS 
       AND A TOTAL OF          7 INNER ITERATIONS.
    ------------------------------------------------

 NO OUTPUT CONTROL FOR STRESS PERIOD   11   TIME STEP    9
 
 SOLVING FOR HEAD 
                                                   Max.-Head-Change                         Max.-Flux-Residual
  Residual-Control   Outer-Iter.   Inner-Iter.     Column Row Layer    Maximum-Head-Change  Column Row Layer    Maximum-Flux-Residual          L2-NORM 
          0                 1           2             4    7     1       0.2386596667E-01       4    7    1         0.1258920374E+01      0.2560534746E+01
          0                 2           2             4    7     1      -0.2321518662E-02       4    7    1        -0.1258927731E+00      0.2560506312E+00
          0                 3           2             4    7     1       0.1580867078E-03       4    7    1         0.8812490961E-02      0.1792318353E-01
          0                 4           1             4    7     1      -0.6290418389E-05       4    7    1        -0.3604314084E-03      0.7330467392E-03

    ------------------------------------------------
       NWT REQUIRED            4 OUTER ITERATIONS 
       AND A TOTAL OF          7 INNER ITERATIONS.
    ------------------------------------------------

 NO OUTPUT CONTROL FOR STRESS PERIOD   11   TIME STEP   10
 
 SOLVING FOR HEAD 
                                                   Max.-Head-Change                         Max.-Flux-Residual
  Residual-Control   Outer-Iter.   Inner-Iter.     Column Row Layer    Maximum-Head-Change  Column Row Layer    Maximum-Flux-Residual          L2-NORM 
          0                 1           2             4    7     1       0.2350778575E-01       4    7    1         0.1240057699E+01      0.2519883513E+01
          0                 2           2             4    7     1      -0.2286677193E-02       4    7    1        -0.1240064901E+00      0.2519859855E+00
          0                 3           2             4    7     1       0.1557141352E-03       4    7    1         0.8680451239E-02      0.1763875760E-01
          0                 4           1             4    7     1      -0.6196011569E-05       4    7    1        -0.3550309752E-03      0.7214298870E-03

    ------------------------------------------------
       NWT REQUIRED            4 OUTER ITERATIONS 
       AND A TOTAL OF          7 INNER ITERATIONS.
    ------------------------------------------------

 NO OUTPUT CONTROL FOR STRESS PERIOD   11   TIME STEP   11
 
 SOLVING FOR HEAD 
                                                   Max.-Head-Change                         Max.-Flux-Residual
  Residual-Control   Outer-Iter.   Inner-Iter.     Column Row Layer    Maximum-Head-Change  Column Row Layer    Maximum-Flux-Residual          L2-NORM 
          0                 1           2             4    7     1       0.2315443182E-01       4    7    1         0.1221442176E+01      0.2480273399E+01
          0                 2           2             4    7     1      -0.2252305259E-02       4    7    1        -0.1221449222E+00      0.2480253410E+00
          0                 3           2             4    7     1       0.1533735363E-03       4    7    1         0.8550141587E-02      0.1736152485E-01
          0                 4           1             4    7     1      -0.6102877024E-05       4    7    1        -0.3497013031E-03      0.7100705388E-03

    ------------------------------------------------
       NWT REQUIRED            4 OUTER ITERATIONS 
       AND A TOTAL OF          7 INNER ITERATIONS.
    ------------------------------------------------

 NO OUTPUT CONTROL FOR STRESS PERIOD   11   TIME STEP   12
 
 SOLVING FOR HEAD 
                                                   Max.-Head-Change                         Max.-Flux-Residual
  Residual-Control   Outer-Iter.   Inner-Iter.     Column Row Layer    Maximum-Head-Change  Column Row Layer    Maximum-Flux-Residual          L2-NORM 
          0                 1           2             4    7     1       0.2280609699E-01       4    7    1         0.1203084297E+01      0.2441667532E+01
          0                 2           2             4    7     1      -0.2218421545E-02       4    7    1        -0.1203091187E+00      0.2441650649E+00
          0                 3           2             4    7     1       0.1510661832E-03       4    7    1         0.8421635423E-02      0.1709135792E-01
          0                 4           1             4    7     1      -0.6011065181E-05       4    7    1        -0.3444453955E-03      0.6990649580E-03

    ------------------------------------------------
       NWT REQUIRED            4 OUTER ITERATIONS 
       AND A TOTAL OF          7 INNER ITERATIONS.
    ------------------------------------------------

 NO OUTPUT CONTROL FOR STRESS PERIOD   11   TIME STEP   13
 
 SOLVING FOR HEAD 
                                                   Max.-Head-Change                         Max.-Flux-Residual
  Residual-Control   Outer-Iter.   Inner-Iter.     Column Row Layer    Maximum-Head-Change  Column Row Layer    Maximum-Flux-Residual          L2-NORM 
          0                 1           2             4    7     1       0.2246267078E-01       4    7    1         0.1184979276E+01      0.2404011283E+01
          0                 2           2             4    7     1      -0.2185015306E-02       4    7    1        -0.1184986009E+00      0.2403997633E+00
          0                 3           2             4    7     1       0.1487913446E-03       4    7    1         0.8294899265E-02      0.1682783057E-01
          0                 4           1             4    7     1      -0.5920547486E-05       4    7    1        -0.3392618960E-03      0.6882520478E-03

    ------------------------------------------------
       NWT REQUIRED            4 OUTER ITERATIONS 
       AND A TOTAL OF          7 INNER ITERATIONS.
    ------------------------------------------------

 NO OUTPUT CONTROL FOR STRESS PERIOD   11   TIME STEP   14
 
 SOLVING FOR HEAD 
                                                   Max.-Head-Change                         Max.-Flux-Residual
  Residual-Control   Outer-Iter.   Inner-Iter.     Column Row Layer    Maximum-Head-Change  Column Row Layer    Maximum-Flux-Residual          L2-NORM 
          0                 1           2             4    7     1       0.2212444798E-01       4    7    1         0.1167143504E+01      0.2367279404E+01
          0                 2           2             4    7     1      -0.2152115220E-02       4    7    1        -0.1167150082E+00      0.2367268012E+00
          0                 3           2             4    7     1       0.1465509732E-03       4    7    1         0.8170047884E-02      0.1657073207E-01
          0                 4           1             4    7     1      -0.5831400847E-05       4    7    1        -0.3341554616E-03      0.6777467244E-03

    ------------------------------------------------
       NWT REQUIRED            4 OUTER ITERATIONS 
       AND A TOTAL OF          7 INNER ITERATIONS.
    ------------------------------------------------

 NO OUTPUT CONTROL FOR STRESS PERIOD   11   TIME STEP   15
 
 SOLVING FOR HEAD 
                                                   Max.-Head-Change                         Max.-Flux-Residual
  Residual-Control   Outer-Iter.   Inner-Iter.     Column Row Layer    Maximum-Head-Change  Column Row Layer    Maximum-Flux-Residual          L2-NORM 
          0                 1           2             4    7     1       0.2179130199E-01       4    7    1         0.1149570147E+01      0.2331448523E+01
          0                 2           2             4    7     1      -0.2119708970E-02       4    7    1        -0.1149576570E+00      0.2331439151E+00
          0                 3           2             4    7     1       0.1443442296E-03       4    7    1         0.8047033389E-02      0.1631994651E-01
          0                 4           1             4    7     1      -0.5743592335E-05       4    7    1        -0.3291241483E-03      0.6674848845E-03

    ------------------------------------------------
       NWT REQUIRED            4 OUTER ITERATIONS 
       AND A TOTAL OF          7 INNER ITERATIONS.
    ------------------------------------------------

 NO OUTPUT CONTROL FOR STRESS PERIOD   11   TIME STEP   16
 
 SOLVING FOR HEAD 
                                                   Max.-Head-Change                         Max.-Flux-Residual
  Residual-Control   Outer-Iter.   Inner-Iter.     Column Row Layer    Maximum-Head-Change  Column Row Layer    Maximum-Flux-Residual          L2-NORM 
          0                 1           2             4    7     1       0.2146309227E-01       4    7    1         0.1132252639E+01      0.2296467203E+01
          0                 2           2             4    7     1      -0.2087782887E-02       4    7    1        -0.1132258909E+00      0.2296459832E+00
          0                 3           2             4    7     1       0.1421701840E-03       4    7    1         0.7925809856E-02      0.1607510243E-01
          0                 4           1             4    7     1      -0.5657084996E-05       4    7    1        -0.3241660979E-03      0.6574558994E-03

    ------------------------------------------------
       NWT REQUIRED            4 OUTER ITERATIONS 
       AND A TOTAL OF          7 INNER ITERATIONS.
    ------------------------------------------------

 NO OUTPUT CONTROL FOR STRESS PERIOD   11   TIME STEP   17
 
 SOLVING FOR HEAD 
                                                   Max.-Head-Change                         Max.-Flux-Residual
  Residual-Control   Outer-Iter.   Inner-Iter.     Column Row Layer    Maximum-Head-Change  Column Row Layer    Maximum-Flux-Residual          L2-NORM 
          0                 1           2             4    7     1       0.2114009183E-01       4    7    1         0.1115205816E+01      0.2262320570E+01
          0                 2           2             4    7     1      -0.2056363526E-02       4    7    1        -0.1115211935E+00      0.2262314710E+00
          0                 3           2             4    7     1       0.1400306443E-03       4    7    1         0.7806481135E-02      0.1583609465E-01
          0                 4           1             4    7     1      -0.5571950783E-05       4    7    1        -0.3192855465E-03      0.6476816971E-03

    ------------------------------------------------
       NWT REQUIRED            4 OUTER ITERATIONS 
       AND A TOTAL OF          7 INNER ITERATIONS.
    ------------------------------------------------

 NO OUTPUT CONTROL FOR STRESS PERIOD   11   TIME STEP   18
 
 SOLVING FOR HEAD 
                                                   Max.-Head-Change                         Max.-Flux-Residual
  Residual-Control   Outer-Iter.   Inner-Iter.     Column Row Layer    Maximum-Head-Change  Column Row Layer    Maximum-Flux-Residual          L2-NORM 
          0                 1           2             4    7     1       0.2082214209E-01       4    7    1         0.1098421712E+01      0.2228972782E+01
          0                 2           2             4    7     1      -0.2025435464E-02       4    7    1        -0.1098427681E+00      0.2228968166E+00
          0                 3           2             4    7     1       0.1379245596E-03       4    7    1         0.7688991420E-02      0.1560269432E-01
          0                 4           1             4    7     1      -0.5488147561E-05       4    7    1        -0.3144802076E-03      0.6381519595E-03

    ------------------------------------------------
       NWT REQUIRED            4 OUTER ITERATIONS 
       AND A TOTAL OF          7 INNER ITERATIONS.
    ------------------------------------------------

 NO OUTPUT CONTROL FOR STRESS PERIOD   11   TIME STEP   19
 
 SOLVING FOR HEAD 
                                                   Max.-Head-Change                         Max.-Flux-Residual
  Residual-Control   Outer-Iter.   Inner-Iter.     Column Row Layer    Maximum-Head-Change  Column Row Layer    Maximum-Flux-Residual          L2-NORM 
          0                 1           2             4    7     1       0.2050922672E-01       4    7    1         0.1081899478E+01      0.2196403680E+01
          0                 2           2             4    7     1      -0.1994997112E-02       4    7    1        -0.1081905299E+00      0.2196400315E+00
          0                 3           2             4    7     1       0.1358518229E-03       4    7    1         0.7573334844E-02      0.1537473515E-01
          0                 4           1             4    7     1      -0.5405671299E-05       4    7    1        -0.3097498461E-03      0.6288194451E-03

    ------------------------------------------------
       NWT REQUIRED            4 OUTER ITERATIONS 
       AND A TOTAL OF          7 INNER ITERATIONS.
    ------------------------------------------------

 NO OUTPUT CONTROL FOR STRESS PERIOD   11   TIME STEP   20
 
 SOLVING FOR HEAD 
                                                   Max.-Head-Change                         Max.-Flux-Residual
  Residual-Control   Outer-Iter.   Inner-Iter.     Column Row Layer    Maximum-Head-Change  Column Row Layer    Maximum-Flux-Residual          L2-NORM 
          0                 1           2             4    7     1       0.2020131586E-01       4    7    1         0.1065638267E+01      0.2164580595E+01
          0                 2           2             4    7     1      -0.1965045565E-02       4    7    1        -0.1065643943E+00      0.2164578259E+00
          0                 3           2             4    7     1       0.1338122358E-03       4    7    1         0.7459505456E-02      0.1515198147E-01
          0                 4           1             4    7     1      -0.5324514170E-05       4    7    1        -0.3050942091E-03      0.6197132196E-03

    ------------------------------------------------
       NWT REQUIRED            4 OUTER ITERATIONS 
       AND A TOTAL OF          7 INNER ITERATIONS.
    ------------------------------------------------

 NO OUTPUT CONTROL FOR STRESS PERIOD   11   TIME STEP   21
 
 SOLVING FOR HEAD 
                                                   Max.-Head-Change                         Max.-Flux-Residual
  Residual-Control   Outer-Iter.   Inner-Iter.     Column Row Layer    Maximum-Head-Change  Column Row Layer    Maximum-Flux-Residual          L2-NORM 
          0                 1           2             4    7     1       0.1989851090E-01       4    7    1         0.1049643908E+01      0.2133484954E+01
          0                 2           2             4    7     1      -0.1935590687E-02       4    7    1        -0.1049649441E+00      0.2133483345E+00
          0                 3           1             4    7     1       0.1318064708E-03       4    7    1         0.7347544031E-02      0.1493433226E-01
          0                 4           1             4    7     1      -0.5244703688E-05       4    7    1        -0.3005149938E-03      0.6108141353E-03

    ------------------------------------------------
       NWT REQUIRED            4 OUTER ITERATIONS 
       AND A TOTAL OF          6 INNER ITERATIONS.
    ------------------------------------------------

 NO OUTPUT CONTROL FOR STRESS PERIOD   11   TIME STEP   22
 
 SOLVING FOR HEAD 
                                                   Max.-Head-Change                         Max.-Flux-Residual
  Residual-Control   Outer-Iter.   Inner-Iter.     Column Row Layer    Maximum-Head-Change  Column Row Layer    Maximum-Flux-Residual          L2-NORM 
          0                 1           2             4    7     1       0.1960076650E-01       4    7    1         0.1033914282E+01      0.2103086994E+01
          0                 2           2             4    7     1      -0.1906628068E-02       4    7    1        -0.1033919674E+00      0.2103086308E+00
          0                 3           1             4    7     1       0.1298342257E-03       4    7    1         0.7237435742E-02      0.1472157137E-01
          0                 4           1             4    7     1      -0.5166226038E-05       4    7    1        -0.2960115471E-03      0.6021120489E-03

    ------------------------------------------------
       NWT REQUIRED            4 OUTER ITERATIONS 
       AND A TOTAL OF          6 INNER ITERATIONS.
    ------------------------------------------------

 NO OUTPUT CONTROL FOR STRESS PERIOD   11   TIME STEP   23
 
 SOLVING FOR HEAD 
                                                   Max.-Head-Change                         Max.-Flux-Residual
  Residual-Control   Outer-Iter.   Inner-Iter.     Column Row Layer    Maximum-Head-Change  Column Row Layer    Maximum-Flux-Residual          L2-NORM 
          0                 1           2             4    7     1       0.1930776599E-01       4    7    1         0.1018432286E+01      0.2073363441E+01
          0                 2           2             4    7     1      -0.1878126903E-02       4    7    1        -0.1018437539E+00      0.2073363398E+00
          0                 3           1             4    7     1       0.1278934044E-03       4    7    1         0.7129060901E-02      0.1451350203E-01
          0                 4           1             4    7     1      -0.5088999134E-05       4    7    1        -0.2915790187E-03      0.5935989666E-03

    ------------------------------------------------
       NWT REQUIRED            4 OUTER ITERATIONS 
       AND A TOTAL OF          6 INNER ITERATIONS.
    ------------------------------------------------

 NO OUTPUT CONTROL FOR STRESS PERIOD   11   TIME STEP   24
 
 SOLVING FOR HEAD 
                                                   Max.-Head-Change                         Max.-Flux-Residual
  Residual-Control   Outer-Iter.   Inner-Iter.     Column Row Layer    Maximum-Head-Change  Column Row Layer    Maximum-Flux-Residual          L2-NORM 
          0                 1           2             4    7     1       0.1901987704E-01       4    7    1         0.1003218382E+01      0.2044307983E+01
          0                 2           2             4    7     1      -0.1850122957E-02       4    7    1        -0.1003223500E+00      0.2044308415E+00
          0                 3           1             4    7     1       0.1259864412E-03       4    7    1         0.7022562700E-02      0.1431012862E-01
          0                 4           1             4    7     1      -0.5013119224E-05       4    7    1        -0.2872232226E-03      0.5852811763E-03

    ------------------------------------------------
       NWT REQUIRED            4 OUTER ITERATIONS 
       AND A TOTAL OF          6 INNER ITERATIONS.
    ------------------------------------------------

 NO OUTPUT CONTROL FOR STRESS PERIOD   11   TIME STEP   25
 
 SOLVING FOR HEAD 
                                                   Max.-Head-Change                         Max.-Flux-Residual
  Residual-Control   Outer-Iter.   Inner-Iter.     Column Row Layer    Maximum-Head-Change  Column Row Layer    Maximum-Flux-Residual          L2-NORM 
          0                 1           2             4    7     1       0.1873676770E-01       4    7    1         0.9882547513E+00      0.2015884993E+01
          0                 2           2             4    7     1      -0.1822583942E-02       4    7    1        -0.9882597363E-01      0.2015885899E+00
          0                 3           1             4    7     1       0.1241111386E-03       4    7    1         0.6917816434E-02      0.1411117894E-01
          0                 4           1             4    7     1      -0.4938499500E-05       4    7    1        -0.2829391137E-03      0.5771456571E-03

    ------------------------------------------------
       NWT REQUIRED            4 OUTER ITERATIONS 
       AND A TOTAL OF          6 INNER ITERATIONS.
    ------------------------------------------------

 NO OUTPUT CONTROL FOR STRESS PERIOD   11   TIME STEP   26
 
 SOLVING FOR HEAD 
                                                   Max.-Head-Change                         Max.-Flux-Residual
  Residual-Control   Outer-Iter.   Inner-Iter.     Column Row Layer    Maximum-Head-Change  Column Row Layer    Maximum-Flux-Residual          L2-NORM 
          0                 1           2             4    7     1       0.1845851853E-01       4    7    1         0.9735463135E+00      0.1988076502E+01
          0                 2           2             4    7     1      -0.1795517692E-02       4    7    1        -0.9735511683E-01      0.1988077846E+00
          0                 3           1             4    7     1       0.1222680287E-03       4    7    1         0.6814856506E-02      0.1391653604E-01
          0                 4           1             4    7     1      -0.4865160225E-05       4    7    1        -0.2787280405E-03      0.5691847993E-03

    ------------------------------------------------
       NWT REQUIRED            4 OUTER ITERATIONS 
       AND A TOTAL OF          6 INNER ITERATIONS.
    ------------------------------------------------

 NO OUTPUT CONTROL FOR STRESS PERIOD   11   TIME STEP   27
 
 SOLVING FOR HEAD 
                                                   Max.-Head-Change                         Max.-Flux-Residual
  Residual-Control   Outer-Iter.   Inner-Iter.     Column Row Layer    Maximum-Head-Change  Column Row Layer    Maximum-Flux-Residual          L2-NORM 
          0                 1           2             4    7     1       0.1818506846E-01       4    7    1         0.9590898680E+00      0.1960868556E+01
          0                 2           2             4    7     1      -0.1768918492E-02       4    7    1        -0.9590945955E-01      0.1960989852E+00
          0                 3           1             4    7     1       0.1204567240E-03       4    7    1         0.6713660604E-02      0.1372691173E-01
          0                 4           1             4    7     1      -0.4793086663E-05       4    7    1        -0.2745891179E-03      0.5614267950E-03

    ------------------------------------------------
       NWT REQUIRED            4 OUTER ITERATIONS 
       AND A TOTAL OF          6 INNER ITERATIONS.
    ------------------------------------------------

 NO OUTPUT CONTROL FOR STRESS PERIOD   11   TIME STEP   28
 
 SOLVING FOR HEAD 
                                                   Max.-Head-Change                         Max.-Flux-Residual
  Residual-Control   Outer-Iter.   Inner-Iter.     Column Row Layer    Maximum-Head-Change  Column Row Layer    Maximum-Flux-Residual          L2-NORM 
          0                 1           2             4    7     1       0.1791635416E-01       4    7    1         0.9448822364E+00      0.1934233987E+01
          0                 2           2             4    7     1      -0.1742779510E-02       4    7    1        -0.9448868395E-01      0.1934235874E+00
          0                 3           1             4    7     1       0.1186767580E-03       4    7    1         0.6614206367E-02      0.1353963050E-01
          0                 4           1             4    7     1      -0.4722260394E-05       4    7    1        -0.2705214456E-03      0.5537685725E-03

    ------------------------------------------------
       NWT REQUIRED            4 OUTER ITERATIONS 
       AND A TOTAL OF          6 INNER ITERATIONS.
    ------------------------------------------------

 NO OUTPUT CONTROL FOR STRESS PERIOD   11   TIME STEP   29
 
 SOLVING FOR HEAD 
                                                   Max.-Head-Change                         Max.-Flux-Residual
  Residual-Control   Outer-Iter.   Inner-Iter.     Column Row Layer    Maximum-Head-Change  Column Row Layer    Maximum-Flux-Residual          L2-NORM 
          0                 1           2             4    7     1       0.1765230828E-01       4    7    1         0.9309201719E+00      0.1908144276E+01
          0                 2           2             4    7     1      -0.1717094866E-02       4    7    1        -0.9309246530E-01      0.1908146395E+00
          0                 3           1             4    7     1       0.1169277308E-03       4    7    1         0.6516471140E-02      0.1335760691E-01
          0                 4           1             4    7     1      -0.4652664838E-05       4    7    1        -0.2665240690E-03      0.5503867452E-03

    ------------------------------------------------
       NWT REQUIRED            4 OUTER ITERATIONS 
       AND A TOTAL OF          6 INNER ITERATIONS.
    ------------------------------------------------

 NO OUTPUT CONTROL FOR STRESS PERIOD   11   TIME STEP   30



 STREAM LISTING     PERIOD     11   STEP       30

 LAYER ROW COL. STREAM  RCH.  FLOW INTO     FLOW TO   FLOW OUT OF   OVRLND.     DIRECT     STREAM       STREAM     STREAM     STREAM   STREAMBED  STREAMBED
                SEG.NO.  NO.  STRM. RCH.    AQUIFER    STRM. RCH.    RUNOFF     PRECIP       ET          HEAD       DEPTH      WIDTH   CONDCTNC.   GRADIENT

   1    1    1     1     1    2.6250E+01  2.5084E-01   2.5999E+01  0.000E+00  0.000E+00  0.000E+00  1.09424E+03  1.197E+00  1.328E+01  5.977E-02  1.399E+00
   1    2    2     1     2    2.5999E+01  3.8795E-01   2.5611E+01  0.000E+00  0.000E+00  0.000E+00  1.08925E+03  1.192E+00  1.322E+01  9.255E-02  1.397E+00
   1    3    3     1     3    2.5611E+01  3.3035E-01   2.5281E+01  0.000E+00  0.000E+00  0.000E+00  1.08361E+03  1.187E+00  1.315E+01  7.890E-02  1.396E+00
   1    3    4     1     4    2.5281E+01  3.0378E-01   2.4977E+01  0.000E+00  0.000E+00  0.000E+00  1.07859E+03  1.182E+00  1.309E+01  7.264E-02  1.394E+00
   1    4    5     2     1    2.2977E+01  3.2316E-01   2.2654E+01  0.000E+00  0.000E+00  0.000E+00  1.07308E+03  1.143E+00  1.200E+01  7.800E-02  1.381E+00
   1    5    6     2     2    2.2654E+01  2.4807E-01   2.2406E+01  0.000E+00  0.000E+00  0.000E+00  1.06764E+03  1.134E+00  1.200E+01  6.000E-02  1.378E+00
   1    6    6     2     3    2.2406E+01  2.4762E-01   2.2158E+01  0.000E+00  0.000E+00  0.000E+00  1.06292E+03  1.127E+00  1.200E+01  6.000E-02  1.376E+00
   1    7    6     2     4    2.2158E+01  2.4717E-01   2.1911E+01  0.000E+00  0.000E+00  0.000E+00  1.05819E+03  1.119E+00  1.200E+01  6.000E-02  1.373E+00
   1    8    6     2     5    2.1911E+01  2.4671E-01   2.1664E+01  0.000E+00  0.000E+00  0.000E+00  1.05347E+03  1.112E+00  1.200E+01  6.000E-02  1.371E+00
   1    3    5     3     1    2.0000E+00  2.8252E-01   1.7175E+00  0.000E+00  0.000E+00  0.000E+00  1.07555E+03  1.909E+00  9.636E+00  7.227E-02  1.955E+00
   1    3    6     3     2    1.7175E+00  2.4905E-01   1.4684E+00  0.000E+00  0.000E+00  0.000E+00  1.07264E+03  1.727E+00  8.909E+00  6.682E-02  1.864E+00
   1    3    7     3     3    1.4684E+00  1.9718E-01   1.2712E+00  0.000E+00  0.000E+00  0.000E+00  1.06987E+03  1.555E+00  8.218E+00  5.547E-02  1.777E+00
   1    4    8     3     4    1.2712E+00  2.2567E-01   1.0456E+00  0.000E+00  0.000E+00  0.000E+00  1.06682E+03  1.364E+00  7.455E+00  6.709E-02  1.682E+00
   1    5    8     3     5    1.0456E+00  1.5790E-01   8.8768E-01  0.000E+00  0.000E+00  0.000E+00  1.06362E+03  1.164E+00  6.655E+00  4.991E-02  1.582E+00
   1    6    8     3     6    8.8768E-01  5.5980E-02   8.3170E-01  0.000E+00  0.000E+00  0.000E+00  1.06158E+03  1.036E+00  6.145E+00  1.844E-02  1.518E+00
   1    5   10     4     1    1.0000E+01  9.0919E-02   9.9091E+00  0.000E+00  0.000E+00  0.000E+00  1.07836E+03  6.368E-01  1.000E+01  2.500E-02  1.212E+00
   1    5    9     4     2    9.9091E+00  1.8158E-01   9.7275E+00  0.000E+00  0.000E+00  0.000E+00  1.07154E+03  6.315E-01  1.000E+01  5.000E-02  1.211E+00
   1    6    8     4     3    9.7275E+00  1.2689E-01   9.6006E+00  0.000E+00  0.000E+00  0.000E+00  1.06381E+03  6.256E-01  1.000E+01  3.500E-02  1.209E+00
   1    6    8     5     1    1.0432E+01  2.2686E-01   1.0205E+01  0.000E+00  0.000E+00  0.000E+00  1.05868E+03  6.790E-01  1.542E+01  6.166E-02  1.226E+00
   1    7    7     5     2    1.0205E+01  2.7894E-01   9.9265E+00  0.000E+00  0.000E+00  0.000E+00  1.05417E+03  6.732E-01  1.519E+01  7.594E-02  1.224E+00
   1    8    7     5     3    9.9265E+00  1.9221E-01   9.7343E+00  0.000E+00  0.000E+00  0.000E+00  1.04992E+03  6.676E-01  1.497E+01  5.241E-02  1.223E+00
   1    8    6     5     4    9.7343E+00  1.3577E-01   9.5985E+00  0.000E+00  0.000E+00  0.000E+00  1.04691E+03  6.637E-01  1.482E+01  3.706E-02  1.221E+00
   1    9    6     6     1    3.1263E+01  2.6357E-01   3.0999E+01  0.000E+00  0.000E+00  0.000E+00  1.04412E+03  1.393E+00  1.200E+01  6.000E-02  1.464E+00
   1   10    7     6     2    3.0999E+01  2.6314E-01   3.0736E+01  0.000E+00  0.000E+00  0.000E+00  1.03957E+03  1.386E+00  1.200E+01  6.000E-02  1.462E+00
   1   11    7     6     3    3.0736E+01  2.6272E-01   3.0473E+01  0.000E+00  0.000E+00  0.000E+00  1.03502E+03  1.379E+00  1.200E+01  6.000E-02  1.460E+00
   1   12    7     6     4    3.0473E+01  2.6229E-01   3.0211E+01  0.000E+00  0.000E+00  0.000E+00  1.03046E+03  1.372E+00  1.200E+01  6.000E-02  1.457E+00
   1   13    7     6     5    3.0211E+01  3.3794E-03   3.0208E+01  0.000E+00  0.000E+00  0.000E+00  1.02728E+03  1.368E+00  1.200E+01  2.400E-02  4.694E-02
   1   14    9     7     1    1.5000E+02  1.3357E+00   1.4866E+02  0.000E+00  0.000E+00  0.000E+00  1.03987E+03  2.288E+00  5.529E+01  5.593E-01  7.961E-01
   1   13    8     7     2    1.4866E+02  1.8212E+00   1.4684E+02  0.000E+00  0.000E+00  0.000E+00  1.03478E+03  2.279E+00  5.526E+01  6.148E-01  9.875E-01
   1   13    7     7     3    1.4684E+02  1.4262E+00   1.4542E+02  0.000E+00  0.000E+00  0.000E+00  1.02969E+03  2.271E+00  5.522E+01  5.585E-01  8.513E-01
   1   13    6     8     1    1.7562E+02  8.9467E-01   1.7473E+02  0.000E+00  0.000E+00  0.000E+00  1.02486E+03  2.986E+00  4.329E+01  4.412E-01  6.760E-01
   1   13    5     8     2    1.7473E+02  1.3762E-01   1.7459E+02  0.000E+00  0.000E+00  0.000E+00  1.01861E+03  2.982E+00  4.324E+01  4.407E-01  1.041E-01
   1   13    4     8     3    1.7459E+02 -2.5895E+00   1.7718E+02  0.000E+00  0.000E+00  0.000E+00  1.01237E+03  2.990E+00  4.336E+01  4.418E+00 -1.954E-01
   1   13    3     8     4    1.7718E+02 -3.7171E+00   1.8090E+02  0.000E+00  0.000E+00  0.000E+00  1.00614E+03  3.010E+00  4.365E+01  4.448E+00 -2.786E-01
   1   13    2     8     5    1.8090E+02 -2.5759E+00   1.8347E+02  0.000E+00  0.000E+00  0.000E+00  9.99905E+02  3.030E+00  4.393E+01  4.477E+00 -1.918E-01
   1   13    1     8     6    1.8347E+02 -1.9653E+00   1.8544E+02  0.000E+00  0.000E+00  0.000E+00  9.94919E+02  3.044E+00  4.414E+01  2.699E+00 -2.427E-01
   1    8    6     9     1    0.0000E+00  0.0000E+00   0.0000E+00  0.000E+00  0.000E+00  0.000E+00  1.07875E+03  0.000E+00  4.000E+00  0.000E+00  1.000E+00
   1    8    5     9     2    0.0000E+00  0.0000E+00   0.0000E+00  0.000E+00  0.000E+00  0.000E+00  1.07825E+03  0.000E+00  4.000E+00  0.000E+00  1.000E+00





UNSATURATED ZONE PACKAGE VOLUMETRIC BUDGET FOR  TIME STEP    30 STRESS PERIOD   11
  ------------------------------------------------------------------------------



     CUMULATIVE VOLUMES      L**3       RATES FOR THIS TIME STEP      L**3/T
     ------------------                 ------------------------

           IN:                                      IN:
           ---                                      ---
        INFILTRATION =   599664782.7229          INFILTRATION =           4.4075

          OUT:                                     OUT:
          ----                                     ----
              UZF ET =   494369850.1384                UZF ET =           3.7800
        UZF RECHARGE =       73224.0000          UZF RECHARGE =       0.0000E+00

            IN - OUT =   105221708.5845              IN - OUT =           0.6275

          STORAGE:                                 STORAGE:
          --------                                 --------
      STORAGE CHANGE =   105221697.3656        STORAGE CHANGE =           0.6275

 PERCENT DISCREPANCY IS DIFFERENCE BETWEEN IN-OUT MINUS CHANGE IN STORAGE
 DIVIDED BY THE AVERAGE OF IN AND OUT TIMES 100

 PERCENT DISCREPANCY =           0.00     PERCENT DISCREPANCY =           0.00






1
  VOLUMETRIC BUDGET FOR AGRICULTURAL FIELDS AT  END OF TIME STEP   30, STRESS PERIOD  11
  ------------------------------------------------------------------------------

     CUMULATIVE VOLUMES      L**3       RATES FOR THIS TIME STEP      L**3/T
     ------------------                 ------------------------

           IN:                                      IN:
           ---                                      ---
               AG WELLS  =   146882592.0000                 AG WELLS  =           0.0000
      DIVERSION SEGMENTS =   336900352.0000        DIVERSION SEGMENTS =           0.0000
           GW IRRIGATION =           0.0000             GW IRRIGATION =           0.0000
           SW IRRIGATION =           0.0000             SW IRRIGATION =           0.0000
        SYSTEM LOSSES GW =           0.0000          SYSTEM LOSSES GW =           0.0000
        SYSTEM LOSSES SW =           0.0000          SYSTEM LOSSES SW =           0.0000

                TOTAL IN =   483782944.0000                  TOTAL IN =           0.0000

          OUT:                                     OUT:
          ----                                     ----
               AG WELLS  =           0.0000                 AG WELLS  =           0.0000
      DIVERSION SEGMENTS =           0.0000        DIVERSION SEGMENTS =           0.0000
           GW IRRIGATION =   146882592.0000             GW IRRIGATION =           0.0000
           SW IRRIGATION =   336907040.0000             SW IRRIGATION =           0.0000
        SYSTEM LOSSES GW =           0.0000          SYSTEM LOSSES GW =           0.0000
        SYSTEM LOSSES SW =           0.0000          SYSTEM LOSSES SW =           0.0000

               TOTAL OUT =   483789632.0000                 TOTAL OUT =           0.0000

                IN - OUT =       -6688.0000                  IN - OUT =           0.0000

     PERCENT DISCREPANCY =          -0.00         PERCENT DISCREPANCY =           0.00



1
  VOLUMETRIC BUDGET FOR ENTIRE MODEL AT END OF TIME STEP   30, STRESS PERIOD  11
  ------------------------------------------------------------------------------

     CUMULATIVE VOLUMES      L**3       RATES FOR THIS TIME STEP      L**3/T
     ------------------                 ------------------------

           IN:                                      IN:
           ---                                      ---
             STORAGE     =   219676656.0000               STORAGE     =           4.5658
       CONSTANT HEAD     =           0.0000         CONSTANT HEAD     =           0.0000
     HEAD DEP BOUNDS     =     7539499.0000       HEAD DEP BOUNDS     =           0.2858
      STREAM LEAKAGE     =   319720704.0000        STREAM LEAKAGE     =          11.6577
        UZF RECHARGE     =       73223.9531          UZF RECHARGE     =           0.0000
               GW ET     =           0.0000                 GW ET     =           0.0000
     SURFACE LEAKAGE     =           0.0000       SURFACE LEAKAGE     =           0.0000
           AG WELLS      =           0.0000             AG WELLS      =           0.0000

                TOTAL IN =   547010048.0000                  TOTAL IN =          16.5093

          OUT:                                     OUT:
          ----                                     ----
             STORAGE     =   106378896.0000               STORAGE     =           5.3709
       CONSTANT HEAD     =           0.0000         CONSTANT HEAD     =           0.0000
     HEAD DEP BOUNDS     =     7680518.0000       HEAD DEP BOUNDS     =           0.2906
      STREAM LEAKAGE     =   284576192.0000        STREAM LEAKAGE     =          10.8478
        UZF RECHARGE     =           0.0000          UZF RECHARGE     =           0.0000
               GW ET     =     1494030.3750                 GW ET     =           0.0000
     SURFACE LEAKAGE     =           0.0000       SURFACE LEAKAGE     =           0.0000
           AG WELLS      =   146882592.0000             AG WELLS      =           0.0000

               TOTAL OUT =   547012224.0000                 TOTAL OUT =          16.5093

                IN - OUT =       -2176.0000                  IN - OUT =       7.6294E-06

     PERCENT DISCREPANCY =          -0.00         PERCENT DISCREPANCY =           0.00






         TIME SUMMARY AT END OF TIME STEP   30 IN STRESS PERIOD   11
                    SECONDS     MINUTES      HOURS       DAYS        YEARS
                    -----------------------------------------------------------
   TIME STEP LENGTH  87667.      1461.1      24.352      1.0147     2.77799E-03
 STRESS PERIOD TIME 2.63000E+06  43833.      730.56      30.440     8.33397E-02
         TOTAL TIME 2.63864E+07 4.39773E+05  7329.5      305.40     0.83613    
1
1
                            STRESS PERIOD NO.   12, LENGTH =   2630000.    
                            -----------------------------------------------

                              NUMBER OF TIME STEPS =    30

                               MULTIPLIER FOR DELT =     1.000

                            INITIAL TIME STEP SIZE =   87666.66    

 REUSING NON-PARAMETER GHB CELLS FROM LAST STRESS PERIOD

      2 GHB CELLS

 REUSING STREAM SEGMENT DATA FROM LAST STRESS PERIOD



            AREAL INFILTRATION RATE
 READING ON UNIT   19 WITH FORMAT: (10F4.0)            

            1           2           3           4           5           6           7           8           9          10
 ........................................................................................................................
   1   1.2000E-09   0.000       0.000       0.000       0.000       0.000       0.000       0.000       0.000       0.000    
   2   2.1000E-09  2.0000E-09  8.0000E-10  8.5000E-09   0.000       0.000       0.000       0.000       0.000       0.000    
   3   5.0000E-10  1.1000E-09  8.8000E-09  5.5000E-09   0.000       0.000       0.000       0.000       0.000       0.000    
   4   8.5000E-09  1.1000E-09  1.1000E-09  1.1000E-09  2.0000E-09   0.000       0.000       0.000       0.000       0.000    
   5   8.5000E-09  1.1000E-09  1.1000E-09  1.1000E-09  1.1000E-09   0.000       0.000       0.000       0.000       0.000    
   6   8.5000E-09  5.2000E-09  2.1000E-09  1.1000E-09  1.5000E-09   0.000       0.000       0.000       0.000       0.000    
   7   8.5000E-09  5.2000E-09  2.1000E-09  1.2000E-09  2.0000E-09   0.000       0.000       0.000       0.000       0.000    
   8   5.0000E-10  5.2000E-09  2.1000E-09  1.2000E-09  5.0000E-09   0.000       0.000       0.000       0.000       0.000    
   9   5.0000E-10  5.2000E-09  2.1000E-09  1.2000E-09  5.0000E-09   0.000       0.000       0.000       0.000       0.000    
  10   5.0000E-10  5.2000E-09  2.1000E-09  1.2000E-09  5.8000E-09   0.000       0.000       0.000       0.000       0.000    
  11   1.0000E-10  1.1000E-09  1.1000E-09  1.2000E-09  5.0000E-09   0.000       0.000       0.000       0.000       0.000    
  12   1.1000E-09  1.1000E-09  1.1000E-09  1.1000E-09  2.0000E-09   0.000       0.000       0.000       0.000       0.000    
  13   1.1000E-09  2.2000E-09  2.2000E-09  2.1000E-09  1.0000E-09   0.000       0.000       0.000       0.000       0.000    
  14   2.0000E-10  5.5000E-09  5.5000E-09  5.2000E-09  1.0000E-09   0.000       0.000       0.000       0.000       0.000    
  15    0.000      8.8000E-09  8.8000E-09   0.000       0.000       0.000       0.000       0.000       0.000       0.000    

                  ET RATE =  5.000000E-10

 USING ET EXTINCTION DEPTH FROM PREVIOUS STRESS PERIOD. CURRENT PERIOD IS:      12

 USING EXTINCTION WATER CONTENT FROM PREVIOUS STRESS PERIOD. CURRENT PERIOD IS:      12

 USING AIR ENTRY PRESSURE FROM PREVIOUS STRESS PERIOD. CURRENT PERIOD IS:      12

 USING ROOT PRESSURE HEAD FROM PREVIOUS STRESS PERIOD. CURRENT PERIOD IS:      12

 USING ROOT ACTIVITY FROM PREVIOUS STRESS PERIOD. CURRENT PERIOD IS:      12

 PROCESSING AG STRESS PERIOD DATA

 READING AG STRESS PERIOD DATA

 READING IRRIGATION SEGMENT

 READING IRRIGATION WELL

 READING SUPPLEMENTAL WELL

 END PROCESSING AG STRESS PERIOD DATA OPTIONS
 
 SOLVING FOR HEAD 
                                                   Max.-Head-Change                         Max.-Flux-Residual
  Residual-Control   Outer-Iter.   Inner-Iter.     Column Row Layer    Maximum-Head-Change  Column Row Layer    Maximum-Flux-Residual          L2-NORM 
          0                 1           2             4    7     1       0.1739282028E-01       4    7    1         0.9172001461E+00      0.1897721403E+01
          0                 2           2             4    7     1      -0.1691853584E-02       4    7    1        -0.9172045090E-01      0.1897592093E+00
          0                 3           1             4    7     1       0.1152088948E-03       4    7    1         0.6420430221E-02      0.1327796491E-01
          0                 4           1             4    7     1      -0.4584270754E-05       4    7    1        -0.2625959833E-03      0.5427347307E-03

    ------------------------------------------------
       NWT REQUIRED            4 OUTER ITERATIONS 
       AND A TOTAL OF          6 INNER ITERATIONS.
    ------------------------------------------------

 NO OUTPUT CONTROL FOR STRESS PERIOD   12   TIME STEP    1
 
 SOLVING FOR HEAD 
                                                   Max.-Head-Change                         Max.-Flux-Residual
  Residual-Control   Outer-Iter.   Inner-Iter.     Column Row Layer    Maximum-Head-Change  Column Row Layer    Maximum-Flux-Residual          L2-NORM 
          0                 1           2             4    7     1       0.1713781138E-01       4    7    1         0.9037164396E+00      0.1876693033E+01
          0                 2           2             4    7     1      -0.1667048000E-02       4    7    1        -0.9037206869E-01      0.1875974388E+00
          0                 3           1             4    7     1       0.1135197280E-03       4    7    1         0.6326043521E-02      0.1312503098E-01
          0                 4           1             4    7     1      -0.4517057304E-05       4    7    1        -0.2587355589E-03      0.5363357381E-03

    ------------------------------------------------
       NWT REQUIRED            4 OUTER ITERATIONS 
       AND A TOTAL OF          6 INNER ITERATIONS.
    ------------------------------------------------

 NO OUTPUT CONTROL FOR STRESS PERIOD   12   TIME STEP    2
 
 SOLVING FOR HEAD 
                                                   Max.-Head-Change                         Max.-Flux-Residual
  Residual-Control   Outer-Iter.   Inner-Iter.     Column Row Layer    Maximum-Head-Change  Column Row Layer    Maximum-Flux-Residual          L2-NORM 
          0                 1           2             4    7     1       0.1688721994E-01       4    7    1         0.8904649679E+00      0.1850230927E+01
          0                 2           2             4    7     1      -0.1642672119E-02       4    7    1        -0.8904691024E-01      0.1849606006E+00
          0                 3           1             4    7     1       0.1118598228E-03       4    7    1         0.6233282508E-02      0.1294146511E-01
          0                 4           1             4    7     1      -0.4451008024E-05       4    7    1        -0.2549416354E-03      0.5288316201E-03

    ------------------------------------------------
       NWT REQUIRED            4 OUTER ITERATIONS 
       AND A TOTAL OF          6 INNER ITERATIONS.
    ------------------------------------------------

 NO OUTPUT CONTROL FOR STRESS PERIOD   12   TIME STEP    3
 
 SOLVING FOR HEAD 
                                                   Max.-Head-Change                         Max.-Flux-Residual
  Residual-Control   Outer-Iter.   Inner-Iter.     Column Row Layer    Maximum-Head-Change  Column Row Layer    Maximum-Flux-Residual          L2-NORM 
          0                 1           2             4    7     1       0.1664110956E-01       4    7    1         0.8774499144E+00      0.1824540271E+01
          0                 2           2             4    7     1      -0.1618732128E-02       4    7    1        -0.8774539388E-01      0.1823996124E+00
          0                 3           1             4    7     1       0.1102295996E-03       4    7    1         0.6142176413E-02      0.1276291138E-01
          0                 4           1             4    7     1      -0.4386139838E-05       4    7    1        -0.2512153906E-03      0.5216308801E-03

    ------------------------------------------------
       NWT REQUIRED            4 OUTER ITERATIONS 
       AND A TOTAL OF          6 INNER ITERATIONS.
    ------------------------------------------------

 NO OUTPUT CONTROL FOR STRESS PERIOD   12   TIME STEP    4
 
 SOLVING FOR HEAD 
                                                   Max.-Head-Change                         Max.-Flux-Residual
  Residual-Control   Outer-Iter.   Inner-Iter.     Column Row Layer    Maximum-Head-Change  Column Row Layer    Maximum-Flux-Residual          L2-NORM 
          0                 1           2             4    7     1       0.1639927326E-01       4    7    1         0.8646598184E+00      0.1799550997E+01
          0                 2           2             4    7     1      -0.1595207891E-02       4    7    1        -0.8646637356E-01      0.1799077592E+00
          0                 3           1             4    7     1       0.1086276881E-03       4    7    1         0.6052645072E-02      0.1258921660E-01
          0                 4           1             4    7     1      -0.4322398521E-05       4    7    1        -0.2475535553E-03      0.5146512345E-03

    ------------------------------------------------
       NWT REQUIRED            4 OUTER ITERATIONS 
       AND A TOTAL OF          6 INNER ITERATIONS.
    ------------------------------------------------

 NO OUTPUT CONTROL FOR STRESS PERIOD   12   TIME STEP    5
 
 SOLVING FOR HEAD 
                                                   Max.-Head-Change                         Max.-Flux-Residual
  Residual-Control   Outer-Iter.   Inner-Iter.     Column Row Layer    Maximum-Head-Change  Column Row Layer    Maximum-Flux-Residual          L2-NORM 
          0                 1           2             4    7     1       0.1616164691E-01       4    7    1         0.8520913267E+00      0.1775243314E+01
          0                 2           2             4    7     1      -0.1572093172E-02       4    7    1        -0.8520951389E-01      0.1774828220E+00
          0                 3           1             4    7     1       0.1070536627E-03       4    7    1         0.5964664943E-02      0.1241988281E-01
          0                 4           1             4    7     1      -0.4259766574E-05       4    7    1        -0.2439551604E-03      0.5077673997E-03

    ------------------------------------------------
       NWT REQUIRED            4 OUTER ITERATIONS 
       AND A TOTAL OF          6 INNER ITERATIONS.
    ------------------------------------------------

 NO OUTPUT CONTROL FOR STRESS PERIOD   12   TIME STEP    6
 
 SOLVING FOR HEAD 
                                                   Max.-Head-Change                         Max.-Flux-Residual
  Residual-Control   Outer-Iter.   Inner-Iter.     Column Row Layer    Maximum-Head-Change  Column Row Layer    Maximum-Flux-Residual          L2-NORM 
          0                 1           2             4    7     1       0.1592816180E-01       4    7    1         0.8397411152E+00      0.1751545823E+01
          0                 2           2             4    7     1      -0.1549381287E-02       4    7    1        -0.8397448252E-01      0.1751186386E+00
          0                 3           1             4    7     1       0.1055070687E-03       4    7    1         0.5878212800E-02      0.1225492379E-01
          0                 4           1             4    7     1      -0.4198225576E-05       4    7    1        -0.2404192405E-03      0.5010320936E-03

    ------------------------------------------------
       NWT REQUIRED            4 OUTER ITERATIONS 
       AND A TOTAL OF          6 INNER ITERATIONS.
    ------------------------------------------------

 NO OUTPUT CONTROL FOR STRESS PERIOD   12   TIME STEP    7
 
 SOLVING FOR HEAD 
                                                   Max.-Head-Change                         Max.-Flux-Residual
  Residual-Control   Outer-Iter.   Inner-Iter.     Column Row Layer    Maximum-Head-Change  Column Row Layer    Maximum-Flux-Residual          L2-NORM 
          0                 1           2             4    7     1       0.1569901317E-01       4    7    1         0.8276203825E+00      0.1728444065E+01
          0                 2           2             4    7     1      -0.1527091227E-02       4    7    1        -0.8276239934E-01      0.1728126791E+00
          0                 3           1             4    7     1       0.1039891999E-03       4    7    1         0.5793367036E-02      0.1209399046E-01
          0                 4           1             4    7     1      -0.4137828485E-05       4    7    1        -0.2369490612E-03      0.4943974762E-03

    ------------------------------------------------
       NWT REQUIRED            4 OUTER ITERATIONS 
       AND A TOTAL OF          6 INNER ITERATIONS.
    ------------------------------------------------

 NO OUTPUT CONTROL FOR STRESS PERIOD   12   TIME STEP    8
 
 SOLVING FOR HEAD 
                                                   Max.-Head-Change                         Max.-Flux-Residual
  Residual-Control   Outer-Iter.   Inner-Iter.     Column Row Layer    Maximum-Head-Change  Column Row Layer    Maximum-Flux-Residual          L2-NORM 
          0                 1           2             4    7     1       0.1547385051E-01       4    7    1         0.8157097289E+00      0.1705882267E+01
          0                 2           2             4    7     1      -0.1505188897E-02       4    7    1        -0.8157132430E-01      0.1705603596E+00
          0                 3           1             4    7     1       0.1024977342E-03       4    7    1         0.5709991856E-02      0.1193665081E-01
          0                 4           1             4    7     1      -0.4078481819E-05       4    7    1        -0.2335390091E-03      0.4880701642E-03

    ------------------------------------------------
       NWT REQUIRED            4 OUTER ITERATIONS 
       AND A TOTAL OF          6 INNER ITERATIONS.
    ------------------------------------------------

 NO OUTPUT CONTROL FOR STRESS PERIOD   12   TIME STEP    9
 
 SOLVING FOR HEAD 
                                                   Max.-Head-Change                         Max.-Flux-Residual
  Residual-Control   Outer-Iter.   Inner-Iter.     Column Row Layer    Maximum-Head-Change  Column Row Layer    Maximum-Flux-Residual          L2-NORM 
          0                 1           2             4    7     1       0.1525260792E-01       4    7    1         0.8040057422E+00      0.1683857728E+01
          0                 2           2             4    7     1      -0.1483667886E-02       4    7    1        -0.8040091619E-01      0.1683613467E+00
          0                 3           1             4    7     1       0.1010322346E-03       4    7    1         0.5628063340E-02      0.1178310273E-01
          0                 4           1             4    7     1      -0.4020168538E-05       4    7    1        -0.2301881364E-03      0.4817190985E-03

    ------------------------------------------------
       NWT REQUIRED            4 OUTER ITERATIONS 
       AND A TOTAL OF          6 INNER ITERATIONS.
    ------------------------------------------------

 NO OUTPUT CONTROL FOR STRESS PERIOD   12   TIME STEP   10
 
 SOLVING FOR HEAD 
                                                   Max.-Head-Change                         Max.-Flux-Residual
  Residual-Control   Outer-Iter.   Inner-Iter.     Column Row Layer    Maximum-Head-Change  Column Row Layer    Maximum-Flux-Residual          L2-NORM 
          0                 1           2             4    7     1       0.1503548883E-01       4    7    1         0.7925197685E+00      0.1662336959E+01
          0                 2           2             4    7     1      -0.1462547983E-02       4    7    1        -0.7925230963E-01      0.1662122737E+00
          0                 3           1             4    7     1       0.9959404849E-04       4    7    1         0.5547660910E-02      0.1163285411E-01

    ------------------------------------------------
       NWT REQUIRED            3 OUTER ITERATIONS 
       AND A TOTAL OF          5 INNER ITERATIONS.
    ------------------------------------------------

 NO OUTPUT CONTROL FOR STRESS PERIOD   12   TIME STEP   11
 
 SOLVING FOR HEAD 
                                                   Max.-Head-Change                         Max.-Flux-Residual
  Residual-Control   Outer-Iter.   Inner-Iter.     Column Row Layer    Maximum-Head-Change  Column Row Layer    Maximum-Flux-Residual          L2-NORM 
          0                 1           2             4    7     1       0.1482207064E-01       4    7    1         0.7812290780E+00      0.1641285075E+01
          0                 2           2             4    7     1      -0.1441788081E-02       4    7    1        -0.7812323163E-01      0.1641095637E+00
          0                 3           1             4    7     1       0.9818037727E-04       4    7    1         0.5468625508E-02      0.1148593658E-01

    ------------------------------------------------
       NWT REQUIRED            3 OUTER ITERATIONS 
       AND A TOTAL OF          5 INNER ITERATIONS.
    ------------------------------------------------

 NO OUTPUT CONTROL FOR STRESS PERIOD   12   TIME STEP   12
 
 SOLVING FOR HEAD 
                                                   Max.-Head-Change                         Max.-Flux-Residual
  Residual-Control   Outer-Iter.   Inner-Iter.     Column Row Layer    Maximum-Head-Change  Column Row Layer    Maximum-Flux-Residual          L2-NORM 
          0                 1           2             4    7     1       0.1461235661E-01       4    7    1         0.7701340913E+00      0.1620680621E+01
          0                 2           2             4    7     1      -0.1421388496E-02       4    7    1        -0.7701372426E-01      0.1620513860E+00
          0                 3           1             4    7     1       0.9679124243E-04       4    7    1         0.5390960032E-02      0.1134198807E-01

    ------------------------------------------------
       NWT REQUIRED            3 OUTER ITERATIONS 
       AND A TOTAL OF          5 INNER ITERATIONS.
    ------------------------------------------------

 NO OUTPUT CONTROL FOR STRESS PERIOD   12   TIME STEP   13
 
 SOLVING FOR HEAD 
                                                   Max.-Head-Change                         Max.-Flux-Residual
  Residual-Control   Outer-Iter.   Inner-Iter.     Column Row Layer    Maximum-Head-Change  Column Row Layer    Maximum-Flux-Residual          L2-NORM 
          0                 1           2             4    7     1       0.1440655141E-01       4    7    1         0.7592459228E+00      0.1600513281E+01
          0                 2           2             4    7     1      -0.1401369137E-02       4    7    1        -0.7592489895E-01      0.1600364902E+00
          0                 3           1             4    7     1       0.9542799965E-04       4    7    1         0.5314742310E-02      0.1120112302E-01

    ------------------------------------------------
       NWT REQUIRED            3 OUTER ITERATIONS 
       AND A TOTAL OF          5 INNER ITERATIONS.
    ------------------------------------------------

 NO OUTPUT CONTROL FOR STRESS PERIOD   12   TIME STEP   14
 
 SOLVING FOR HEAD 
                                                   Max.-Head-Change                         Max.-Flux-Residual
  Residual-Control   Outer-Iter.   Inner-Iter.     Column Row Layer    Maximum-Head-Change  Column Row Layer    Maximum-Flux-Residual          L2-NORM 
          0                 1           2             4    7     1       0.1420430699E-01       4    7    1         0.7485456564E+00      0.1580775479E+01
          0                 2           2             4    7     1      -0.1381696148E-02       4    7    1        -0.7485486404E-01      0.1580644848E+00
          0                 3           1             4    7     1       0.9408834326E-04       4    7    1         0.5239839912E-02      0.1106330466E-01

    ------------------------------------------------
       NWT REQUIRED            3 OUTER ITERATIONS 
       AND A TOTAL OF          5 INNER ITERATIONS.
    ------------------------------------------------

 NO OUTPUT CONTROL FOR STRESS PERIOD   12   TIME STEP   15
 
 SOLVING FOR HEAD 
                                                   Max.-Head-Change                         Max.-Flux-Residual
  Residual-Control   Outer-Iter.   Inner-Iter.     Column Row Layer    Maximum-Head-Change  Column Row Layer    Maximum-Flux-Residual          L2-NORM 
          0                 1           2             4    7     1       0.1400582848E-01       4    7    1         0.7380447761E+00      0.1561439060E+01
          0                 2           2             4    7     1      -0.1362389483E-02       4    7    1        -0.7380476802E-01      0.1561322689E+00
          0                 3           1             4    7     1       0.9277363223E-04       4    7    1         0.5166333252E-02      0.1092818067E-01

    ------------------------------------------------
       NWT REQUIRED            3 OUTER ITERATIONS 
       AND A TOTAL OF          5 INNER ITERATIONS.
    ------------------------------------------------

 NO OUTPUT CONTROL FOR STRESS PERIOD   12   TIME STEP   16
 
 SOLVING FOR HEAD 
                                                   Max.-Head-Change                         Max.-Flux-Residual
  Residual-Control   Outer-Iter.   Inner-Iter.     Column Row Layer    Maximum-Head-Change  Column Row Layer    Maximum-Flux-Residual          L2-NORM 
          0                 1           2             4    7     1       0.1381076872E-01       4    7    1         0.7277243867E+00      0.1542488960E+01
          0                 2           2             4    7     1      -0.1343415372E-02       4    7    1        -0.7277272128E-01      0.1542386095E+00
          0                 3           1             4    7     1       0.9148156657E-04       4    7    1         0.5094090021E-02      0.1079572746E-01

    ------------------------------------------------
       NWT REQUIRED            3 OUTER ITERATIONS 
       AND A TOTAL OF          5 INNER ITERATIONS.
    ------------------------------------------------

 NO OUTPUT CONTROL FOR STRESS PERIOD   12   TIME STEP   17
 
 SOLVING FOR HEAD 
                                                   Max.-Head-Change                         Max.-Flux-Residual
  Residual-Control   Outer-Iter.   Inner-Iter.     Column Row Layer    Maximum-Head-Change  Column Row Layer    Maximum-Flux-Residual          L2-NORM 
          0                 1           2             4    7     1       0.1361932975E-01       4    7    1         0.7175960196E+00      0.1523915158E+01
          0                 2           2             4    7     1      -0.1324793469E-02       4    7    1        -0.7175987700E-01      0.1523822721E+00
          0                 3           1             4    7     1       0.9021348514E-04       4    7    1         0.5023190964E-02      0.1066584868E-01

    ------------------------------------------------
       NWT REQUIRED            3 OUTER ITERATIONS 
       AND A TOTAL OF          5 INNER ITERATIONS.
    ------------------------------------------------

 NO OUTPUT CONTROL FOR STRESS PERIOD   12   TIME STEP   18
 
 SOLVING FOR HEAD 
                                                   Max.-Head-Change                         Max.-Flux-Residual
  Residual-Control   Outer-Iter.   Inner-Iter.     Column Row Layer    Maximum-Head-Change  Column Row Layer    Maximum-Flux-Residual          L2-NORM 
          0                 1           2             4    7     1       0.1343143475E-01       4    7    1         0.7076553853E+00      0.1505700287E+01
          0                 2           2             4    7     1      -0.1306516300E-02       4    7    1        -0.7076580621E-01      0.1505617845E+00
          0                 3           1             4    7     1       0.8896887910E-04       4    7    1         0.4953606055E-02      0.1053857556E-01

    ------------------------------------------------
       NWT REQUIRED            3 OUTER ITERATIONS 
       AND A TOTAL OF          5 INNER ITERATIONS.
    ------------------------------------------------

 NO OUTPUT CONTROL FOR STRESS PERIOD   12   TIME STEP   19
 
 SOLVING FOR HEAD 
                                                   Max.-Head-Change                         Max.-Flux-Residual
  Residual-Control   Outer-Iter.   Inner-Iter.     Column Row Layer    Maximum-Head-Change  Column Row Layer    Maximum-Flux-Residual          L2-NORM 
          0                 1           2             4    7     1       0.1324674407E-01       4    7    1         0.6978837335E+00      0.1487852327E+01
          0                 2           2             4    7     1      -0.1288550827E-02       4    7    1        -0.6978863385E-01      0.1487779015E+00
          0                 3           1             4    7     1       0.8774549745E-04       4    7    1         0.4885204021E-02      0.1041377870E-01

    ------------------------------------------------
       NWT REQUIRED            3 OUTER ITERATIONS 
       AND A TOTAL OF          5 INNER ITERATIONS.
    ------------------------------------------------

 NO OUTPUT CONTROL FOR STRESS PERIOD   12   TIME STEP   20
 
 SOLVING FOR HEAD 
                                                   Max.-Head-Change                         Max.-Flux-Residual
  Residual-Control   Outer-Iter.   Inner-Iter.     Column Row Layer    Maximum-Head-Change  Column Row Layer    Maximum-Flux-Residual          L2-NORM 
          0                 1           2             4    7     1       0.1306546211E-01       4    7    1         0.6882929874E+00      0.1470325886E+01
          0                 2           2             4    7     1      -0.1270916933E-02       4    7    1        -0.6882955229E-01      0.1470260299E+00
          0                 3           1             4    7     1       0.8654469608E-04       4    7    1         0.4818068350E-02      0.1029123928E-01

    ------------------------------------------------
       NWT REQUIRED            3 OUTER ITERATIONS 
       AND A TOTAL OF          5 INNER ITERATIONS.
    ------------------------------------------------

 NO OUTPUT CONTROL FOR STRESS PERIOD   12   TIME STEP   21
 
 SOLVING FOR HEAD 
                                                   Max.-Head-Change                         Max.-Flux-Residual
  Residual-Control   Outer-Iter.   Inner-Iter.     Column Row Layer    Maximum-Head-Change  Column Row Layer    Maximum-Flux-Residual          L2-NORM 
          0                 1           2             4    7     1       0.1288724629E-01       4    7    1         0.6788642106E+00      0.1453133226E+01
          0                 2           2             4    7     1      -0.1253581294E-02       4    7    1        -0.6788666785E-01      0.1453074137E+00
          0                 3           1             4    7     1       0.8536420412E-04       4    7    1         0.4752066455E-02      0.1017101155E-01

    ------------------------------------------------
       NWT REQUIRED            3 OUTER ITERATIONS 
       AND A TOTAL OF          5 INNER ITERATIONS.
    ------------------------------------------------

 NO OUTPUT CONTROL FOR STRESS PERIOD   12   TIME STEP   22
 
 SOLVING FOR HEAD 
                                                   Max.-Head-Change                         Max.-Flux-Residual
  Residual-Control   Outer-Iter.   Inner-Iter.     Column Row Layer    Maximum-Head-Change  Column Row Layer    Maximum-Flux-Residual          L2-NORM 
          0                 1           2             4    7     1       0.1271230953E-01       4    7    1         0.6696091763E+00      0.1436266851E+01
          0                 2           2             4    7     1      -0.1236564620E-02       4    7    1        -0.6696115782E-01      0.1436213496E+00
          0                 3           1             4    7     1       0.8420543261E-04       4    7    1         0.4687280799E-02      0.1005304735E-01

    ------------------------------------------------
       NWT REQUIRED            3 OUTER ITERATIONS 
       AND A TOTAL OF          5 INNER ITERATIONS.
    ------------------------------------------------

 NO OUTPUT CONTROL FOR STRESS PERIOD   12   TIME STEP   23
 
 SOLVING FOR HEAD 
                                                   Max.-Head-Change                         Max.-Flux-Residual
  Residual-Control   Outer-Iter.   Inner-Iter.     Column Row Layer    Maximum-Head-Change  Column Row Layer    Maximum-Flux-Residual          L2-NORM 
          0                 1           2             4    7     1       0.1254058439E-01       4    7    1         0.6605241561E+00      0.1419709998E+01
          0                 2           2             4    7     1      -0.1219860352E-02       4    7    1        -0.6605264944E-01      0.1419661639E+00
          0                 3           1             4    7     1       0.8306793471E-04       4    7    1         0.4623685244E-02      0.9937162391E-02

    ------------------------------------------------
       NWT REQUIRED            3 OUTER ITERATIONS 
       AND A TOTAL OF          5 INNER ITERATIONS.
    ------------------------------------------------

 NO OUTPUT CONTROL FOR STRESS PERIOD   12   TIME STEP   24
 
 SOLVING FOR HEAD 
                                                   Max.-Head-Change                         Max.-Flux-Residual
  Residual-Control   Outer-Iter.   Inner-Iter.     Column Row Layer    Maximum-Head-Change  Column Row Layer    Maximum-Flux-Residual          L2-NORM 
          0                 1           2             4    7     1       0.1237172391E-01       4    7    1         0.6515908845E+00      0.1403448927E+01
          0                 2           2             4    7     1      -0.1203434739E-02       4    7    1        -0.6515931606E-01      0.1403405043E+00
          0                 3           1             4    7     1       0.8194941257E-04       4    7    1         0.4561151943E-02      0.9823431734E-02

    ------------------------------------------------
       NWT REQUIRED            3 OUTER ITERATIONS 
       AND A TOTAL OF          5 INNER ITERATIONS.
    ------------------------------------------------

 NO OUTPUT CONTROL FOR STRESS PERIOD   12   TIME STEP   25
 
 SOLVING FOR HEAD 
                                                   Max.-Head-Change                         Max.-Flux-Residual
  Residual-Control   Outer-Iter.   Inner-Iter.     Column Row Layer    Maximum-Head-Change  Column Row Layer    Maximum-Flux-Residual          L2-NORM 
          0                 1           2             4    7     1       0.1220594399E-01       4    7    1         0.6428209098E+00      0.1387477056E+01
          0                 2           2             4    7     1      -0.1187308786E-02       4    7    1        -0.6428231257E-01      0.1387437408E+00
          0                 3           1             4    7     1       0.8085129569E-04       4    7    1         0.4499761725E-02      0.9711717395E-02

    ------------------------------------------------
       NWT REQUIRED            3 OUTER ITERATIONS 
       AND A TOTAL OF          5 INNER ITERATIONS.
    ------------------------------------------------

 NO OUTPUT CONTROL FOR STRESS PERIOD   12   TIME STEP   26
 
 SOLVING FOR HEAD 
                                                   Max.-Head-Change                         Max.-Flux-Residual
  Residual-Control   Outer-Iter.   Inner-Iter.     Column Row Layer    Maximum-Head-Change  Column Row Layer    Maximum-Flux-Residual          L2-NORM 
          0                 1           2             4    7     1       0.1204318617E-01       4    7    1         0.6342106582E+00      0.1371810498E+01
          0                 2           2             4    7     1      -0.1171476801E-02       4    7    1        -0.6342128155E-01      0.1371774267E+00
          0                 3           1             4    7     1       0.7977319687E-04       4    7    1         0.4439489591E-02      0.9602102175E-02

    ------------------------------------------------
       NWT REQUIRED            3 OUTER ITERATIONS 
       AND A TOTAL OF          5 INNER ITERATIONS.
    ------------------------------------------------

 NO OUTPUT CONTROL FOR STRESS PERIOD   12   TIME STEP   27
 
 SOLVING FOR HEAD 
                                                   Max.-Head-Change                         Max.-Flux-Residual
  Residual-Control   Outer-Iter.   Inner-Iter.     Column Row Layer    Maximum-Head-Change  Column Row Layer    Maximum-Flux-Residual          L2-NORM 
          0                 1           2             4    7     1       0.1188337141E-01       4    7    1         0.6257570976E+00      0.1356405373E+01
          0                 2           2             4    7     1      -0.1155931099E-02       4    7    1        -0.6257591980E-01      0.1356373230E+00
          0                 3           1             4    7     1       0.7871459353E-04       4    7    1         0.4380314299E-02      0.9494368078E-02

    ------------------------------------------------
       NWT REQUIRED            3 OUTER ITERATIONS 
       AND A TOTAL OF          5 INNER ITERATIONS.
    ------------------------------------------------

 NO OUTPUT CONTROL FOR STRESS PERIOD   12   TIME STEP   28
 
 SOLVING FOR HEAD 
                                                   Max.-Head-Change                         Max.-Flux-Residual
  Residual-Control   Outer-Iter.   Inner-Iter.     Column Row Layer    Maximum-Head-Change  Column Row Layer    Maximum-Flux-Residual          L2-NORM 
          0                 1           2             4    7     1       0.1172617668E-01       4    7    1         0.6174413597E+00      0.1341279220E+01
          0                 2           2             4    7     1      -0.1140640257E-02       4    7    1        -0.6174434046E-01      0.1341248736E+00
          0                 3           1             4    7     1       0.7767334451E-04       4    7    1         0.4322103762E-02      0.9388455645E-02

    ------------------------------------------------
       NWT REQUIRED            3 OUTER ITERATIONS 
       AND A TOTAL OF          5 INNER ITERATIONS.
    ------------------------------------------------

 NO OUTPUT CONTROL FOR STRESS PERIOD   12   TIME STEP   29
 
 SOLVING FOR HEAD 
                                                   Max.-Head-Change                         Max.-Flux-Residual
  Residual-Control   Outer-Iter.   Inner-Iter.     Column Row Layer    Maximum-Head-Change  Column Row Layer    Maximum-Flux-Residual          L2-NORM 
          0                 1           2             4    7     1       0.1157208518E-01       4    7    1         0.6092910077E+00      0.1327444950E+01
          0                 2           2             4    7     1      -0.1125651276E-02       4    7    1        -0.6092929990E-01      0.1327388664E+00
          0                 3           1             4    7     1       0.7665265150E-04       4    7    1         0.4265050959E-02      0.9291212953E-02

    ------------------------------------------------
       NWT REQUIRED            3 OUTER ITERATIONS 
       AND A TOTAL OF          5 INNER ITERATIONS.
    ------------------------------------------------

 NO OUTPUT CONTROL FOR STRESS PERIOD   12   TIME STEP   30



 STREAM LISTING     PERIOD     12   STEP       30

 LAYER ROW COL. STREAM  RCH.  FLOW INTO     FLOW TO   FLOW OUT OF   OVRLND.     DIRECT     STREAM       STREAM     STREAM     STREAM   STREAMBED  STREAMBED
                SEG.NO.  NO.  STRM. RCH.    AQUIFER    STRM. RCH.    RUNOFF     PRECIP       ET          HEAD       DEPTH      WIDTH   CONDCTNC.   GRADIENT

   1    1    1     1     1    1.9081E+01  2.1479E-01   1.8866E+01  0.000E+00  0.000E+00  0.000E+00  1.09413E+03  1.083E+00  1.169E+01  5.260E-02  1.361E+00
   1    2    2     1     2    1.8866E+01  3.3136E-01   1.8535E+01  0.000E+00  0.000E+00  0.000E+00  1.08914E+03  1.079E+00  1.161E+01  8.124E-02  1.360E+00
   1    3    3     1     3    1.8535E+01  2.8134E-01   1.8253E+01  0.000E+00  0.000E+00  0.000E+00  1.08349E+03  1.074E+00  1.151E+01  6.906E-02  1.358E+00
   1    3    4     1     4    1.8253E+01  2.5804E-01   1.7995E+01  0.000E+00  0.000E+00  0.000E+00  1.07848E+03  1.069E+00  1.143E+01  6.342E-02  1.356E+00
   1    4    5     2     1    1.5995E+01  3.0564E-01   1.5690E+01  0.000E+00  0.000E+00  0.000E+00  1.07285E+03  9.184E-01  1.200E+01  7.800E-02  1.306E+00
   1    5    6     2     2    1.5690E+01  2.3454E-01   1.5455E+01  0.000E+00  0.000E+00  0.000E+00  1.06742E+03  9.090E-01  1.200E+01  6.000E-02  1.303E+00
   1    6    6     2     3    1.5455E+01  2.3405E-01   1.5221E+01  0.000E+00  0.000E+00  0.000E+00  1.06269E+03  9.008E-01  1.200E+01  6.000E-02  1.300E+00
   1    7    6     2     4    1.5221E+01  2.3355E-01   1.4987E+01  0.000E+00  0.000E+00  0.000E+00  1.05797E+03  8.925E-01  1.200E+01  6.000E-02  1.297E+00
   1    8    6     2     5    1.4987E+01  2.3305E-01   1.4754E+01  0.000E+00  0.000E+00  0.000E+00  1.05324E+03  8.842E-01  1.200E+01  6.000E-02  1.295E+00
   1    3    5     3     1    2.0000E+00  2.8252E-01   1.7175E+00  0.000E+00  0.000E+00  0.000E+00  1.07555E+03  1.909E+00  9.636E+00  7.227E-02  1.955E+00
   1    3    6     3     2    1.7175E+00  2.4905E-01   1.4684E+00  0.000E+00  0.000E+00  0.000E+00  1.07264E+03  1.727E+00  8.909E+00  6.682E-02  1.864E+00
   1    3    7     3     3    1.4684E+00  1.9718E-01   1.2712E+00  0.000E+00  0.000E+00  0.000E+00  1.06987E+03  1.555E+00  8.218E+00  5.547E-02  1.777E+00
   1    4    8     3     4    1.2712E+00  2.2567E-01   1.0456E+00  0.000E+00  0.000E+00  0.000E+00  1.06682E+03  1.364E+00  7.455E+00  6.709E-02  1.682E+00
   1    5    8     3     5    1.0456E+00  1.5790E-01   8.8768E-01  0.000E+00  0.000E+00  0.000E+00  1.06362E+03  1.164E+00  6.655E+00  4.991E-02  1.582E+00
   1    6    8     3     6    8.8768E-01  5.5980E-02   8.3170E-01  0.000E+00  0.000E+00  0.000E+00  1.06158E+03  1.036E+00  6.145E+00  1.844E-02  1.518E+00
   1    5   10     4     1    1.0000E+01  9.0919E-02   9.9091E+00  0.000E+00  0.000E+00  0.000E+00  1.07836E+03  6.368E-01  1.000E+01  2.500E-02  1.212E+00
   1    5    9     4     2    9.9091E+00  1.8158E-01   9.7275E+00  0.000E+00  0.000E+00  0.000E+00  1.07154E+03  6.315E-01  1.000E+01  5.000E-02  1.211E+00
   1    6    8     4     3    9.7275E+00  1.2689E-01   9.6006E+00  0.000E+00  0.000E+00  0.000E+00  1.06381E+03  6.256E-01  1.000E+01  3.500E-02  1.209E+00
   1    6    8     5     1    1.0432E+01  2.2686E-01   1.0205E+01  0.000E+00  0.000E+00  0.000E+00  1.05868E+03  6.790E-01  1.542E+01  6.166E-02  1.226E+00
   1    7    7     5     2    1.0205E+01  2.7894E-01   9.9265E+00  0.000E+00  0.000E+00  0.000E+00  1.05417E+03  6.732E-01  1.519E+01  7.594E-02  1.224E+00
   1    8    7     5     3    9.9265E+00  1.9221E-01   9.7343E+00  0.000E+00  0.000E+00  0.000E+00  1.04992E+03  6.676E-01  1.497E+01  5.241E-02  1.223E+00
   1    8    6     5     4    9.7343E+00  1.3577E-01   9.5985E+00  0.000E+00  0.000E+00  0.000E+00  1.04691E+03  6.637E-01  1.482E+01  3.706E-02  1.221E+00
   1    9    6     6     1    2.4353E+01  2.5190E-01   2.4101E+01  0.000E+00  0.000E+00  0.000E+00  1.04393E+03  1.198E+00  1.200E+01  6.000E-02  1.399E+00
   1   10    7     6     2    2.4101E+01  2.5145E-01   2.3850E+01  0.000E+00  0.000E+00  0.000E+00  1.03937E+03  1.191E+00  1.200E+01  6.000E-02  1.397E+00
   1   11    7     6     3    2.3850E+01  2.5100E-01   2.3599E+01  0.000E+00  0.000E+00  0.000E+00  1.03482E+03  1.183E+00  1.200E+01  6.000E-02  1.394E+00
   1   12    7     6     4    2.3599E+01  2.5054E-01   2.3348E+01  0.000E+00  0.000E+00  0.000E+00  1.03027E+03  1.176E+00  1.200E+01  6.000E-02  1.392E+00
   1   13    7     6     5    2.3348E+01 -1.2194E-02   2.3360E+01  0.000E+00  0.000E+00  0.000E+00  1.02708E+03  1.172E+00  1.200E+01  2.400E-01 -1.694E-02
   1   14    9     7     1    1.5000E+02  1.3358E+00   1.4866E+02  0.000E+00  0.000E+00  0.000E+00  1.03987E+03  2.288E+00  5.529E+01  5.593E-01  7.961E-01
   1   13    8     7     2    1.4866E+02  1.8207E+00   1.4684E+02  0.000E+00  0.000E+00  0.000E+00  1.03478E+03  2.279E+00  5.526E+01  6.148E-01  9.872E-01
   1   13    7     7     3    1.4684E+02  1.4285E+00   1.4542E+02  0.000E+00  0.000E+00  0.000E+00  1.02969E+03  2.271E+00  5.522E+01  5.585E-01  8.526E-01
   1   13    6     8     1    1.6878E+02  8.6832E-01   1.6791E+02  0.000E+00  0.000E+00  0.000E+00  1.02482E+03  2.941E+00  4.265E+01  4.346E-01  6.660E-01
   1   13    5     8     2    1.6791E+02  1.2376E-01   1.6778E+02  0.000E+00  0.000E+00  0.000E+00  1.01856E+03  2.938E+00  4.260E+01  4.341E-01  9.502E-02
   1   13    4     8     3    1.6778E+02 -2.6247E+00   1.7041E+02  0.000E+00  0.000E+00  0.000E+00  1.01232E+03  2.946E+00  4.272E+01  4.353E+00 -2.010E-01
   1   13    3     8     4    1.7041E+02 -3.7466E+00   1.7415E+02  0.000E+00  0.000E+00  0.000E+00  1.00609E+03  2.967E+00  4.302E+01  4.384E+00 -2.849E-01
   1   13    2     8     5    1.7415E+02 -2.6119E+00   1.7677E+02  0.000E+00  0.000E+00  0.000E+00  9.99862E+02  2.987E+00  4.332E+01  4.414E+00 -1.972E-01
   1   13    1     8     6    1.7677E+02 -2.0002E+00   1.7877E+02  0.000E+00  0.000E+00  0.000E+00  9.94877E+02  3.002E+00  4.353E+01  2.662E+00 -2.505E-01
   1    8    6     9     1    0.0000E+00  0.0000E+00   0.0000E+00  0.000E+00  0.000E+00  0.000E+00  1.07875E+03  0.000E+00  4.000E+00  0.000E+00  1.000E+00
   1    8    5     9     2    0.0000E+00  0.0000E+00   0.0000E+00  0.000E+00  0.000E+00  0.000E+00  1.07825E+03  0.000E+00  4.000E+00  0.000E+00  1.000E+00





UNSATURATED ZONE PACKAGE VOLUMETRIC BUDGET FOR  TIME STEP    30 STRESS PERIOD   12
  ------------------------------------------------------------------------------



     CUMULATIVE VOLUMES      L**3       RATES FOR THIS TIME STEP      L**3/T
     ------------------                 ------------------------

           IN:                                      IN:
           ---                                      ---
        INFILTRATION =   611256507.2810          INFILTRATION =           4.4075

          OUT:                                     OUT:
          ----                                     ----
              UZF ET =   496276599.9866                UZF ET =           0.7250
        UZF RECHARGE =       73224.0000          UZF RECHARGE =       0.0000E+00

            IN - OUT =   114906683.2944              IN - OUT =           3.6825

          STORAGE:                                 STORAGE:
          --------                                 --------
      STORAGE CHANGE =   114906672.0164        STORAGE CHANGE =           3.6825

 PERCENT DISCREPANCY IS DIFFERENCE BETWEEN IN-OUT MINUS CHANGE IN STORAGE
 DIVIDED BY THE AVERAGE OF IN AND OUT TIMES 100

 PERCENT DISCREPANCY =           0.00     PERCENT DISCREPANCY =           0.00






1
  VOLUMETRIC BUDGET FOR AGRICULTURAL FIELDS AT  END OF TIME STEP   30, STRESS PERIOD  12
  ------------------------------------------------------------------------------

     CUMULATIVE VOLUMES      L**3       RATES FOR THIS TIME STEP      L**3/T
     ------------------                 ------------------------

           IN:                                      IN:
           ---                                      ---
               AG WELLS  =   146882592.0000                 AG WELLS  =           0.0000
      DIVERSION SEGMENTS =   336900352.0000        DIVERSION SEGMENTS =           0.0000
           GW IRRIGATION =           0.0000             GW IRRIGATION =           0.0000
           SW IRRIGATION =           0.0000             SW IRRIGATION =           0.0000
        SYSTEM LOSSES GW =           0.0000          SYSTEM LOSSES GW =           0.0000
        SYSTEM LOSSES SW =           0.0000          SYSTEM LOSSES SW =           0.0000

                TOTAL IN =   483782944.0000                  TOTAL IN =           0.0000

          OUT:                                     OUT:
          ----                                     ----
               AG WELLS  =           0.0000                 AG WELLS  =           0.0000
      DIVERSION SEGMENTS =           0.0000        DIVERSION SEGMENTS =           0.0000
           GW IRRIGATION =   146882592.0000             GW IRRIGATION =           0.0000
           SW IRRIGATION =   336907040.0000             SW IRRIGATION =           0.0000
        SYSTEM LOSSES GW =           0.0000          SYSTEM LOSSES GW =           0.0000
        SYSTEM LOSSES SW =           0.0000          SYSTEM LOSSES SW =           0.0000

               TOTAL OUT =   483789632.0000                 TOTAL OUT =           0.0000

                IN - OUT =       -6688.0000                  IN - OUT =           0.0000

     PERCENT DISCREPANCY =          -0.00         PERCENT DISCREPANCY =           0.00



1
  VOLUMETRIC BUDGET FOR ENTIRE MODEL AT END OF TIME STEP   30, STRESS PERIOD  12
  ------------------------------------------------------------------------------

     CUMULATIVE VOLUMES      L**3       RATES FOR THIS TIME STEP      L**3/T
     ------------------                 ------------------------

           IN:                                      IN:
           ---                                      ---
             STORAGE     =   231105936.0000               STORAGE     =           3.7463
       CONSTANT HEAD     =           0.0000         CONSTANT HEAD     =           0.0000
     HEAD DEP BOUNDS     =     8291029.5000       HEAD DEP BOUNDS     =           0.2858
      STREAM LEAKAGE     =   349512128.0000        STREAM LEAKAGE     =          11.3098
        UZF RECHARGE     =       73223.9531          UZF RECHARGE     =           0.0000
               GW ET     =           0.0000                 GW ET     =           0.0000
     SURFACE LEAKAGE     =           0.0000       SURFACE LEAKAGE     =           0.0000
           AG WELLS      =           0.0000             AG WELLS      =           0.0000

                TOTAL IN =   588982272.0000                  TOTAL IN =          15.3418

          OUT:                                     OUT:
          ----                                     ----
             STORAGE     =   118435784.0000               STORAGE     =           4.0565
       CONSTANT HEAD     =           0.0000         CONSTANT HEAD     =           0.0000
     HEAD DEP BOUNDS     =     8443643.0000       HEAD DEP BOUNDS     =           0.2899
      STREAM LEAKAGE     =   313728608.0000        STREAM LEAKAGE     =          10.9956
        UZF RECHARGE     =           0.0000          UZF RECHARGE     =           0.0000
               GW ET     =     1494030.3750                 GW ET     =           0.0000
     SURFACE LEAKAGE     =           0.0000       SURFACE LEAKAGE     =           0.0000
           AG WELLS      =   146882592.0000             AG WELLS      =           0.0000

               TOTAL OUT =   588984640.0000                 TOTAL OUT =          15.3419

                IN - OUT =       -2368.0000                  IN - OUT =      -8.5831E-05

     PERCENT DISCREPANCY =          -0.00         PERCENT DISCREPANCY =          -0.00






         TIME SUMMARY AT END OF TIME STEP   30 IN STRESS PERIOD   12
                    SECONDS     MINUTES      HOURS       DAYS        YEARS
                    -----------------------------------------------------------
   TIME STEP LENGTH  87667.      1461.1      24.352      1.0147     2.77799E-03
 STRESS PERIOD TIME 2.63000E+06  43833.      730.56      30.440     8.33397E-02
         TOTAL TIME 2.90163E+07 4.83606E+05  8060.1      335.84     0.91947    
1
1
                            STRESS PERIOD NO.   13, LENGTH =   2630000.    
                            -----------------------------------------------

                              NUMBER OF TIME STEPS =    30

                               MULTIPLIER FOR DELT =     1.000

                            INITIAL TIME STEP SIZE =   87666.66    

 REUSING NON-PARAMETER GHB CELLS FROM LAST STRESS PERIOD

      2 GHB CELLS

 REUSING STREAM SEGMENT DATA FROM LAST STRESS PERIOD



            AREAL INFILTRATION RATE
 READING ON UNIT   19 WITH FORMAT: (10F4.0)            

            1           2           3           4           5           6           7           8           9          10
 ........................................................................................................................
   1   1.2000E-09   0.000       0.000       0.000       0.000       0.000       0.000       0.000       0.000       0.000    
   2   2.1000E-09  2.0000E-09  8.0000E-10  8.5000E-09   0.000       0.000       0.000       0.000       0.000       0.000    
   3   5.0000E-10  1.1000E-09  8.8000E-09  5.5000E-09   0.000       0.000       0.000       0.000       0.000       0.000    
   4   8.5000E-09  1.1000E-09  1.1000E-09  1.1000E-09  2.0000E-09   0.000       0.000       0.000       0.000       0.000    
   5   8.5000E-09  1.1000E-09  1.1000E-09  1.1000E-09  1.1000E-09   0.000       0.000       0.000       0.000       0.000    
   6   8.5000E-09  5.2000E-09  2.1000E-09  1.1000E-09  1.5000E-09   0.000       0.000       0.000       0.000       0.000    
   7   8.5000E-09  5.2000E-09  2.1000E-09  1.2000E-09  2.0000E-09   0.000       0.000       0.000       0.000       0.000    
   8   5.0000E-10  5.2000E-09  2.1000E-09  1.2000E-09  5.0000E-09   0.000       0.000       0.000       0.000       0.000    
   9   5.0000E-10  5.2000E-09  2.1000E-09  1.2000E-09  5.0000E-09   0.000       0.000       0.000       0.000       0.000    
  10   5.0000E-10  5.2000E-09  2.1000E-09  1.2000E-09  5.8000E-09   0.000       0.000       0.000       0.000       0.000    
  11   1.0000E-10  1.1000E-09  1.1000E-09  1.2000E-09  5.0000E-09   0.000       0.000       0.000       0.000       0.000    
  12   1.1000E-09  1.1000E-09  1.1000E-09  1.1000E-09  2.0000E-09   0.000       0.000       0.000       0.000       0.000    
  13   1.1000E-09  2.2000E-09  2.2000E-09  2.1000E-09  1.0000E-09   0.000       0.000       0.000       0.000       0.000    
  14   2.0000E-10  5.5000E-09  5.5000E-09  5.2000E-09  1.0000E-09   0.000       0.000       0.000       0.000       0.000    
  15    0.000      8.8000E-09  8.8000E-09   0.000       0.000       0.000       0.000       0.000       0.000       0.000    

                  ET RATE =  5.000000E-10

 USING ET EXTINCTION DEPTH FROM PREVIOUS STRESS PERIOD. CURRENT PERIOD IS:      13

 USING EXTINCTION WATER CONTENT FROM PREVIOUS STRESS PERIOD. CURRENT PERIOD IS:      13

 USING AIR ENTRY PRESSURE FROM PREVIOUS STRESS PERIOD. CURRENT PERIOD IS:      13

 USING ROOT PRESSURE HEAD FROM PREVIOUS STRESS PERIOD. CURRENT PERIOD IS:      13

 USING ROOT ACTIVITY FROM PREVIOUS STRESS PERIOD. CURRENT PERIOD IS:      13

 PROCESSING AG STRESS PERIOD DATA

 READING AG STRESS PERIOD DATA

 READING IRRIGATION SEGMENT

 READING IRRIGATION WELL

 READING SUPPLEMENTAL WELL

 END PROCESSING AG STRESS PERIOD DATA OPTIONS
 
 SOLVING FOR HEAD 
                                                   Max.-Head-Change                         Max.-Flux-Residual
  Residual-Control   Outer-Iter.   Inner-Iter.     Column Row Layer    Maximum-Head-Change  Column Row Layer    Maximum-Flux-Residual          L2-NORM 
          0                 1           2             4    7     1       0.1142045715E-01       4    7    1         0.6012720113E+00      0.1319723523E+01
          0                 2           2             4    7     1      -0.1110901926E-02       4    7    1        -0.6012739506E-01      0.1319442567E+00
          0                 3           1             4    7     1       0.7564827616E-04       4    7    1         0.4208917656E-02      0.9233525413E-02

    ------------------------------------------------
       NWT REQUIRED            3 OUTER ITERATIONS 
       AND A TOTAL OF          5 INNER ITERATIONS.
    ------------------------------------------------

 NO OUTPUT CONTROL FOR STRESS PERIOD   13   TIME STEP    1
 
 SOLVING FOR HEAD 
                                                   Max.-Head-Change                         Max.-Flux-Residual
  Residual-Control   Outer-Iter.   Inner-Iter.     Column Row Layer    Maximum-Head-Change  Column Row Layer    Maximum-Flux-Residual          L2-NORM 
          0                 1           2             4    7     1       0.1127152615E-01       4    7    1         0.5933955127E+00      0.1304776814E+01
          0                 2           2             4    7     1      -0.1096414927E-02       4    7    1        -0.5933974014E-01      0.1304527669E+00
          0                 3           1             4    7     1       0.7466176588E-04       4    7    1         0.4153781825E-02      0.9129493601E-02

    ------------------------------------------------
       NWT REQUIRED            3 OUTER ITERATIONS 
       AND A TOTAL OF          5 INNER ITERATIONS.
    ------------------------------------------------

 NO OUTPUT CONTROL FOR STRESS PERIOD   13   TIME STEP    2
 
 SOLVING FOR HEAD 
                                                   Max.-Head-Change                         Max.-Flux-Residual
  Residual-Control   Outer-Iter.   Inner-Iter.     Column Row Layer    Maximum-Head-Change  Column Row Layer    Maximum-Flux-Residual          L2-NORM 
          0                 1           2             4    7     1       0.1112523144E-01       4    7    1         0.5856588516E+00      0.1290143928E+01
          0                 2           2             4    7     1      -0.1082184367E-02       4    7    1        -0.5856606911E-01      0.1289925320E+00
          0                 3           1             4    7     1       0.7369271781E-04       4    7    1         0.4099624872E-02      0.9027605885E-02

    ------------------------------------------------
       NWT REQUIRED            3 OUTER ITERATIONS 
       AND A TOTAL OF          5 INNER ITERATIONS.
    ------------------------------------------------

 NO OUTPUT CONTROL FOR STRESS PERIOD   13   TIME STEP    3
 
 SOLVING FOR HEAD 
                                                   Max.-Head-Change                         Max.-Flux-Residual
  Residual-Control   Outer-Iter.   Inner-Iter.     Column Row Layer    Maximum-Head-Change  Column Row Layer    Maximum-Flux-Residual          L2-NORM 
          0                 1           2             4    7     1       0.1098151550E-01       4    7    1         0.5780588779E+00      0.1275820293E+01
          0                 2           2             4    7     1      -0.1068204655E-02       4    7    1        -0.5780606697E-01      0.1275624126E+00
          0                 3           1             4    7     1       0.7274075212E-04       4    7    1         0.4046424742E-02      0.8927647653E-02

    ------------------------------------------------
       NWT REQUIRED            3 OUTER ITERATIONS 
       AND A TOTAL OF          5 INNER ITERATIONS.
    ------------------------------------------------

 NO OUTPUT CONTROL FOR STRESS PERIOD   13   TIME STEP    4
 
 SOLVING FOR HEAD 
                                                   Max.-Head-Change                         Max.-Flux-Residual
  Residual-Control   Outer-Iter.   Inner-Iter.     Column Row Layer    Maximum-Head-Change  Column Row Layer    Maximum-Flux-Residual          L2-NORM 
          0                 1           2             4    7     1       0.1084031737E-01       4    7    1         0.5705926097E+00      0.1261779570E+01
          0                 2           2             4    7     1      -0.1054469859E-02       4    7    1        -0.5705943552E-01      0.1261605099E+00
          0                 3           1             4    7     1       0.7180546385E-04       4    7    1         0.3994160550E-02      0.8829561479E-02

    ------------------------------------------------
       NWT REQUIRED            3 OUTER ITERATIONS 
       AND A TOTAL OF          5 INNER ITERATIONS.
    ------------------------------------------------

 NO OUTPUT CONTROL FOR STRESS PERIOD   13   TIME STEP    5
 
 SOLVING FOR HEAD 
                                                   Max.-Head-Change                         Max.-Flux-Residual
  Residual-Control   Outer-Iter.   Inner-Iter.     Column Row Layer    Maximum-Head-Change  Column Row Layer    Maximum-Flux-Residual          L2-NORM 
          0                 1           2             4    7     1       0.1070131537E-01       4    7    1         0.5632421131E+00      0.1248003536E+01
          0                 2           2             4    7     1      -0.1040948688E-02       4    7    1        -0.5632438131E-01      0.1247850142E+00
          0                 3           1             4    7     1       0.7088472317E-04       4    7    1         0.3942706789E-02      0.8733604666E-02

    ------------------------------------------------
       NWT REQUIRED            3 OUTER ITERATIONS 
       AND A TOTAL OF          5 INNER ITERATIONS.
    ------------------------------------------------

 NO OUTPUT CONTROL FOR STRESS PERIOD   13   TIME STEP    6
 
 SOLVING FOR HEAD 
                                                   Max.-Head-Change                         Max.-Flux-Residual
  Residual-Control   Outer-Iter.   Inner-Iter.     Column Row Layer    Maximum-Head-Change  Column Row Layer    Maximum-Flux-Residual          L2-NORM 
          0                 1           2             4    7     1       0.1056501515E-01       4    7    1         0.5560350289E+00      0.1234511054E+01
          0                 2           2             4    7     1      -0.1027690328E-02       4    7    1        -0.5560366851E-01      0.1234372248E+00
          0                 3           1             4    7     1       0.6998187830E-04       4    7    1         0.3892256918E-02      0.8639308720E-02

    ------------------------------------------------
       NWT REQUIRED            3 OUTER ITERATIONS 
       AND A TOTAL OF          5 INNER ITERATIONS.
    ------------------------------------------------

 NO OUTPUT CONTROL FOR STRESS PERIOD   13   TIME STEP    7
 
 SOLVING FOR HEAD 
                                                   Max.-Head-Change                         Max.-Flux-Residual
  Residual-Control   Outer-Iter.   Inner-Iter.     Column Row Layer    Maximum-Head-Change  Column Row Layer    Maximum-Flux-Residual          L2-NORM 
          0                 1           2             4    7     1       0.1043107525E-01       4    7    1         0.5489532543E+00      0.1221264789E+01
          0                 2           2             4    7     1      -0.1014661565E-02       4    7    1        -0.5489548681E-01      0.1221140019E+00
          0                 3           1             4    7     1       0.6909466878E-04       4    7    1         0.3842684212E-02      0.8546695903E-02

    ------------------------------------------------
       NWT REQUIRED            3 OUTER ITERATIONS 
       AND A TOTAL OF          5 INNER ITERATIONS.
    ------------------------------------------------

 NO OUTPUT CONTROL FOR STRESS PERIOD   13   TIME STEP    8
 
 SOLVING FOR HEAD 
                                                   Max.-Head-Change                         Max.-Flux-Residual
  Residual-Control   Outer-Iter.   Inner-Iter.     Column Row Layer    Maximum-Head-Change  Column Row Layer    Maximum-Flux-Residual          L2-NORM 
          0                 1           2             4    7     1       0.1029917695E-01       4    7    1         0.5419790851E+00      0.1208251034E+01
          0                 2           2             4    7     1      -0.1001831396E-02       4    7    1        -0.5419806573E-01      0.1208140834E+00
          0                 3           1             4    7     1       0.6822098182E-04       4    7    1         0.3793864745E-02      0.8455977278E-02

    ------------------------------------------------
       NWT REQUIRED            3 OUTER ITERATIONS 
       AND A TOTAL OF          5 INNER ITERATIONS.
    ------------------------------------------------

 NO OUTPUT CONTROL FOR STRESS PERIOD   13   TIME STEP    9
 
 SOLVING FOR HEAD 
                                                   Max.-Head-Change                         Max.-Flux-Residual
  Residual-Control   Outer-Iter.   Inner-Iter.     Column Row Layer    Maximum-Head-Change  Column Row Layer    Maximum-Flux-Residual          L2-NORM 
          0                 1           2             4    7     1       0.1016981630E-01       4    7    1         0.5351403179E+00      0.1195470648E+01
          0                 2           2             4    7     1      -0.9892480730E-03       4    7    1        -0.5351418500E-01      0.1195370022E+00
          0                 3           1             4    7     1       0.6736410482E-04       4    7    1         0.3745993097E-02      0.8366672714E-02

    ------------------------------------------------
       NWT REQUIRED            3 OUTER ITERATIONS 
       AND A TOTAL OF          5 INNER ITERATIONS.
    ------------------------------------------------

 NO OUTPUT CONTROL FOR STRESS PERIOD   13   TIME STEP   10
 
 SOLVING FOR HEAD 
                                                   Max.-Head-Change                         Max.-Flux-Residual
  Residual-Control   Outer-Iter.   Inner-Iter.     Column Row Layer    Maximum-Head-Change  Column Row Layer    Maximum-Flux-Residual          L2-NORM 
          0                 1           2             4    7     1       0.1004266663E-01       4    7    1         0.5284183502E+00      0.1182925417E+01
          0                 2           2             4    7     1      -0.9768798200E-03       4    7    1        -0.5284198434E-01      0.1182835312E+00
          0                 3           1             4    7     1       0.6652187364E-04       4    7    1         0.3698939089E-02      0.8279046398E-02

    ------------------------------------------------
       NWT REQUIRED            3 OUTER ITERATIONS 
       AND A TOTAL OF          5 INNER ITERATIONS.
    ------------------------------------------------

 NO OUTPUT CONTROL FOR STRESS PERIOD   13   TIME STEP   11
 
 SOLVING FOR HEAD 
                                                   Max.-Head-Change                         Max.-Flux-Residual
  Residual-Control   Outer-Iter.   Inner-Iter.     Column Row Layer    Maximum-Head-Change  Column Row Layer    Maximum-Flux-Residual          L2-NORM 
          0                 1           2             4    7     1       0.9917684598E-02       4    7    1         0.5218110182E+00      0.1170603660E+01
          0                 2           2             4    7     1      -0.9647224201E-03       4    7    1        -0.5218124733E-01      0.1170522020E+00
          0                 3           1             4    7     1       0.6569400047E-04       4    7    1         0.3652687528E-02      0.8192875734E-02

    ------------------------------------------------
       NWT REQUIRED            3 OUTER ITERATIONS 
       AND A TOTAL OF          5 INNER ITERATIONS.
    ------------------------------------------------

 NO OUTPUT CONTROL FOR STRESS PERIOD   13   TIME STEP   12
 
 SOLVING FOR HEAD 
                                                   Max.-Head-Change                         Max.-Flux-Residual
  Residual-Control   Outer-Iter.   Inner-Iter.     Column Row Layer    Maximum-Head-Change  Column Row Layer    Maximum-Flux-Residual          L2-NORM 
          0                 1           2             4    7     1       0.9794818005E-02       4    7    1         0.5153160751E+00      0.1158480628E+01
          0                 2           2             4    7     1      -0.9527707958E-03       4    7    1        -0.5153174931E-01      0.1158407154E+00
          0                 3           1             4    7     1       0.6488013931E-04       4    7    1         0.3607222655E-02      0.8108195796E-02

    ------------------------------------------------
       NWT REQUIRED            3 OUTER ITERATIONS 
       AND A TOTAL OF          5 INNER ITERATIONS.
    ------------------------------------------------

 NO OUTPUT CONTROL FOR STRESS PERIOD   13   TIME STEP   13
 
 SOLVING FOR HEAD 
                                                   Max.-Head-Change                         Max.-Flux-Residual
  Residual-Control   Outer-Iter.   Inner-Iter.     Column Row Layer    Maximum-Head-Change  Column Row Layer    Maximum-Flux-Residual          L2-NORM 
          0                 1           2             4    7     1       0.9674019707E-02       4    7    1         0.5089308143E+00      0.1146566062E+01
          0                 2           2             4    7     1      -0.9410203630E-03       4    7    1        -0.5089321967E-01      0.1146499873E+00
          0                 3           1             4    7     1       0.6407997941E-04       4    7    1         0.3562525610E-02      0.8024868417E-02

    ------------------------------------------------
       NWT REQUIRED            3 OUTER ITERATIONS 
       AND A TOTAL OF          5 INNER ITERATIONS.
    ------------------------------------------------

 NO OUTPUT CONTROL FOR STRESS PERIOD   13   TIME STEP   14
 
 SOLVING FOR HEAD 
                                                   Max.-Head-Change                         Max.-Flux-Residual
  Residual-Control   Outer-Iter.   Inner-Iter.     Column Row Layer    Maximum-Head-Change  Column Row Layer    Maximum-Flux-Residual          L2-NORM 
          0                 1           2             4    7     1       0.9555250291E-02       4    7    1         0.5026527915E+00      0.1134850585E+01
          0                 2           2             4    7     1      -0.9294672858E-03       4    7    1        -0.5026541389E-01      0.1134789152E+00
          0                 3           1             4    7     1       0.6329325804E-04       4    7    1         0.3518579226E-02      0.7942941240E-02

    ------------------------------------------------
       NWT REQUIRED            3 OUTER ITERATIONS 
       AND A TOTAL OF          5 INNER ITERATIONS.
    ------------------------------------------------

 NO OUTPUT CONTROL FOR STRESS PERIOD   13   TIME STEP   15
 
 SOLVING FOR HEAD 
                                                   Max.-Head-Change                         Max.-Flux-Residual
  Residual-Control   Outer-Iter.   Inner-Iter.     Column Row Layer    Maximum-Head-Change  Column Row Layer    Maximum-Flux-Residual          L2-NORM 
          0                 1           2             4    7     1       0.9438462362E-02       4    7    1         0.4964799632E+00      0.1123331066E+01
          0                 2           2             4    7     1      -0.9181069546E-03       4    7    1        -0.4964812766E-01      0.1123275240E+00
          0                 3           1             4    7     1       0.6251966211E-04       4    7    1         0.3475369200E-02      0.7862398176E-02

    ------------------------------------------------
       NWT REQUIRED            3 OUTER ITERATIONS 
       AND A TOTAL OF          5 INNER ITERATIONS.
    ------------------------------------------------

 NO OUTPUT CONTROL FOR STRESS PERIOD   13   TIME STEP   16
 
 SOLVING FOR HEAD 
                                                   Max.-Head-Change                         Max.-Flux-Residual
  Residual-Control   Outer-Iter.   Inner-Iter.     Column Row Layer    Maximum-Head-Change  Column Row Layer    Maximum-Flux-Residual          L2-NORM 
          0                 1           2             4    7     1       0.9323616425E-02       4    7    1         0.4904098721E+00      0.1111998808E+01
          0                 2           2             4    7     1      -0.9069355282E-03       4    7    1        -0.4904111525E-01      0.1111947605E+00
          0                 3           1             4    7     1       0.6175893007E-04       4    7    1         0.3432878354E-02      0.7783112702E-02

    ------------------------------------------------
       NWT REQUIRED            3 OUTER ITERATIONS 
       AND A TOTAL OF          5 INNER ITERATIONS.
    ------------------------------------------------

 NO OUTPUT CONTROL FOR STRESS PERIOD   13   TIME STEP   17
 
 SOLVING FOR HEAD 
                                                   Max.-Head-Change                         Max.-Flux-Residual
  Residual-Control   Outer-Iter.   Inner-Iter.     Column Row Layer    Maximum-Head-Change  Column Row Layer    Maximum-Flux-Residual          L2-NORM 
          0                 1           2             4    7     1       0.9210936760E-02       4    7    1         0.4844552472E+00      0.1100845818E+01
          0                 2           2             4    7     1      -0.8959953943E-03       4    7    1        -0.4844564957E-01      0.1101125845E+00
          0                 3           1             4    7     1       0.6101394746E-04       4    7    1         0.3391195757E-02      0.7707434476E-02

    ------------------------------------------------
       NWT REQUIRED            3 OUTER ITERATIONS 
       AND A TOTAL OF          5 INNER ITERATIONS.
    ------------------------------------------------

 NO OUTPUT CONTROL FOR STRESS PERIOD   13   TIME STEP   18
 
 SOLVING FOR HEAD 
                                                   Max.-Head-Change                         Max.-Flux-Residual
  Residual-Control   Outer-Iter.   Inner-Iter.     Column Row Layer    Maximum-Head-Change  Column Row Layer    Maximum-Flux-Residual          L2-NORM 
          0                 1           2             4    7     1       0.9099742702E-02       4    7    1         0.4785822929E+00      0.1089846581E+01
          0                 2           2             4    7     1      -0.8851586325E-03       4    7    1        -0.4785835112E-01      0.1089804384E+00
          0                 3           1             4    7     1       0.6027600494E-04       4    7    1         0.3350084892E-02      0.7628181240E-02

    ------------------------------------------------
       NWT REQUIRED            3 OUTER ITERATIONS 
       AND A TOTAL OF          5 INNER ITERATIONS.
    ------------------------------------------------

 NO OUTPUT CONTROL FOR STRESS PERIOD   13   TIME STEP   19
 
 SOLVING FOR HEAD 
                                                   Max.-Head-Change                         Max.-Flux-Residual
  Residual-Control   Outer-Iter.   Inner-Iter.     Column Row Layer    Maximum-Head-Change  Column Row Layer    Maximum-Flux-Residual          L2-NORM 
          0                 1           2             4    7     1       0.8990623292E-02       4    7    1         0.4728181051E+00      0.1078997868E+01
          0                 2           2             4    7     1      -0.8745442447E-03       4    7    1        -0.4728192934E-01      0.1078958565E+00
          0                 3           1             4    7     1       0.5955320476E-04       4    7    1         0.3309735351E-02      0.7552372503E-02

    ------------------------------------------------
       NWT REQUIRED            3 OUTER ITERATIONS 
       AND A TOTAL OF          5 INNER ITERATIONS.
    ------------------------------------------------

 NO OUTPUT CONTROL FOR STRESS PERIOD   13   TIME STEP   20
 
 SOLVING FOR HEAD 
                                                   Max.-Head-Change                         Max.-Flux-Residual
  Residual-Control   Outer-Iter.   Inner-Iter.     Column Row Layer    Maximum-Head-Change  Column Row Layer    Maximum-Flux-Residual          L2-NORM 
          0                 1           2             4    7     1       0.8883237027E-02       4    7    1         0.4671456147E+00      0.1068320117E+01
          0                 2           2             4    7     1      -0.8640984463E-03       4    7    1        -0.4671467739E-01      0.1068283408E+00
          0                 3           1             4    7     1       0.5884188538E-04       4    7    1         0.3270027741E-02      0.7477631591E-02

    ------------------------------------------------
       NWT REQUIRED            3 OUTER ITERATIONS 
       AND A TOTAL OF          5 INNER ITERATIONS.
    ------------------------------------------------

 NO OUTPUT CONTROL FOR STRESS PERIOD   13   TIME STEP   21
 
 SOLVING FOR HEAD 
                                                   Max.-Head-Change                         Max.-Flux-Residual
  Residual-Control   Outer-Iter.   Inner-Iter.     Column Row Layer    Maximum-Head-Change  Column Row Layer    Maximum-Flux-Residual          L2-NORM 
          0                 1           2             4    7     1       0.8777553416E-02       4    7    1         0.4615629853E+00      0.1057805649E+01
          0                 2           2             4    7     1      -0.8538182709E-03       4    7    1        -0.4615641165E-01      0.1057771705E+00
          0                 3           1             4    7     1       0.5814184347E-04       4    7    1         0.3230949129E-02      0.7404011190E-02

    ------------------------------------------------
       NWT REQUIRED            3 OUTER ITERATIONS 
       AND A TOTAL OF          5 INNER ITERATIONS.
    ------------------------------------------------

 NO OUTPUT CONTROL FOR STRESS PERIOD   13   TIME STEP   22
 
 SOLVING FOR HEAD 
                                                   Max.-Head-Change                         Max.-Flux-Residual
  Residual-Control   Outer-Iter.   Inner-Iter.     Column Row Layer    Maximum-Head-Change  Column Row Layer    Maximum-Flux-Residual          L2-NORM 
          0                 1           2             4    7     1       0.8673811784E-02       4    7    1         0.4560834143E+00      0.1047471347E+01
          0                 2           2             4    7     1      -0.8437269983E-03       4    7    1        -0.4560845181E-01      0.1047439932E+00
          0                 3           1             4    7     1       0.5745466594E-04       4    7    1         0.3192591958E-02      0.7331813418E-02

    ------------------------------------------------
       NWT REQUIRED            3 OUTER ITERATIONS 
       AND A TOTAL OF          5 INNER ITERATIONS.
    ------------------------------------------------

 NO OUTPUT CONTROL FOR STRESS PERIOD   13   TIME STEP   23
 
 SOLVING FOR HEAD 
                                                   Max.-Head-Change                         Max.-Flux-Residual
  Residual-Control   Outer-Iter.   Inner-Iter.     Column Row Layer    Maximum-Head-Change  Column Row Layer    Maximum-Flux-Residual          L2-NORM 
          0                 1           2             4    7     1       0.8571415488E-02       4    7    1         0.4506749755E+00      0.1037268445E+01
          0                 2           2             4    7     1      -0.8337665907E-03       4    7    1        -0.4506760522E-01      0.1037239105E+00
          0                 3           1             4    7     1       0.5677639916E-04       4    7    1         0.3154732702E-02      0.7260424125E-02

    ------------------------------------------------
       NWT REQUIRED            3 OUTER ITERATIONS 
       AND A TOTAL OF          5 INNER ITERATIONS.
    ------------------------------------------------

 NO OUTPUT CONTROL FOR STRESS PERIOD   13   TIME STEP   24
 
 SOLVING FOR HEAD 
                                                   Max.-Head-Change                         Max.-Flux-Residual
  Residual-Control   Outer-Iter.   Inner-Iter.     Column Row Layer    Maximum-Head-Change  Column Row Layer    Maximum-Flux-Residual          L2-NORM 
          0                 1           2             4    7     1       0.8470900656E-02       4    7    1         0.4453658474E+00      0.1027250391E+01
          0                 2           2             4    7     1      -0.8239891997E-03       4    7    1        -0.4453668980E-01      0.1027219271E+00
          0                 3           1             4    7     1       0.5611059535E-04       4    7    1         0.3117568633E-02      0.7190292397E-02

    ------------------------------------------------
       NWT REQUIRED            3 OUTER ITERATIONS 
       AND A TOTAL OF          5 INNER ITERATIONS.
    ------------------------------------------------

 NO OUTPUT CONTROL FOR STRESS PERIOD   13   TIME STEP   25
 
 SOLVING FOR HEAD 
                                                   Max.-Head-Change                         Max.-Flux-Residual
  Residual-Control   Outer-Iter.   Inner-Iter.     Column Row Layer    Maximum-Head-Change  Column Row Layer    Maximum-Flux-Residual          L2-NORM 
          0                 1           2             4    7     1       0.8371948909E-02       4    7    1         0.4401394919E+00      0.1017378471E+01
          0                 2           2             4    7     1      -0.8143638554E-03       4    7    1        -0.4401405171E-01      0.1017352836E+00
          0                 3           1             4    7     1       0.5545514576E-04       4    7    1         0.3080983985E-02      0.7121248704E-02

    ------------------------------------------------
       NWT REQUIRED            3 OUTER ITERATIONS 
       AND A TOTAL OF          5 INNER ITERATIONS.
    ------------------------------------------------

 NO OUTPUT CONTROL FOR STRESS PERIOD   13   TIME STEP   26
 
 SOLVING FOR HEAD 
                                                   Max.-Head-Change                         Max.-Flux-Residual
  Residual-Control   Outer-Iter.   Inner-Iter.     Column Row Layer    Maximum-Head-Change  Column Row Layer    Maximum-Flux-Residual          L2-NORM 
          0                 1           2             4    7     1       0.8274527811E-02       4    7    1         0.4349941800E+00      0.1007650951E+01
          0                 2           2             4    7     1      -0.8048874023E-03       4    7    1        -0.4349951805E-01      0.1007627419E+00
          0                 3           1             4    7     1       0.5480983455E-04       4    7    1         0.3044966631E-02      0.7053123304E-02

    ------------------------------------------------
       NWT REQUIRED            3 OUTER ITERATIONS 
       AND A TOTAL OF          5 INNER ITERATIONS.
    ------------------------------------------------

 NO OUTPUT CONTROL FOR STRESS PERIOD   13   TIME STEP   27
 
 SOLVING FOR HEAD 
                                                   Max.-Head-Change                         Max.-Flux-Residual
  Residual-Control   Outer-Iter.   Inner-Iter.     Column Row Layer    Maximum-Head-Change  Column Row Layer    Maximum-Flux-Residual          L2-NORM 
          0                 1           2             4    7     1       0.8178880966E-02       4    7    1         0.4299430097E+00      0.9980759798E+00
          0                 2           2             4    7     1      -0.7955835366E-03       4    7    1        -0.4299439860E-01      0.9980528996E-01
          0                 3           1             4    7     1       0.5417627630E-04       4    7    1         0.3009608280E-02      0.6986131417E-02

    ------------------------------------------------
       NWT REQUIRED            3 OUTER ITERATIONS 
       AND A TOTAL OF          5 INNER ITERATIONS.
    ------------------------------------------------

 NO OUTPUT CONTROL FOR STRESS PERIOD   13   TIME STEP   28
 
 SOLVING FOR HEAD 
                                                   Max.-Head-Change                         Max.-Flux-Residual
  Residual-Control   Outer-Iter.   Inner-Iter.     Column Row Layer    Maximum-Head-Change  Column Row Layer    Maximum-Flux-Residual          L2-NORM 
          0                 1           2             4    7     1       0.8084696959E-02       4    7    1         0.4249690523E+00      0.9886555892E+00
          0                 2           2             4    7     1      -0.7864219665E-03       4    7    1        -0.4249700053E-01      0.9886341988E-01
          0                 3           1             4    7     1       0.5355240768E-04       4    7    1         0.2974790420E-02      0.6920272703E-02

    ------------------------------------------------
       NWT REQUIRED            3 OUTER ITERATIONS 
       AND A TOTAL OF          5 INNER ITERATIONS.
    ------------------------------------------------

 NO OUTPUT CONTROL FOR STRESS PERIOD   13   TIME STEP   29
 
 SOLVING FOR HEAD 
                                                   Max.-Head-Change                         Max.-Flux-Residual
  Residual-Control   Outer-Iter.   Inner-Iter.     Column Row Layer    Maximum-Head-Change  Column Row Layer    Maximum-Flux-Residual          L2-NORM 
          0                 1           2             4    7     1       0.7991945993E-02       4    7    1         0.4200709409E+00      0.9793625851E+00
          0                 2           2             4    7     1      -0.7773997927E-03       4    7    1        -0.4200718710E-01      0.9793416871E-01
          0                 3           1             4    7     1       0.5293803132E-04       4    7    1         0.2940503485E-02      0.6855176648E-02

    ------------------------------------------------
       NWT REQUIRED            3 OUTER ITERATIONS 
       AND A TOTAL OF          5 INNER ITERATIONS.
    ------------------------------------------------

 NO OUTPUT CONTROL FOR STRESS PERIOD   13   TIME STEP   30



 STREAM LISTING     PERIOD     13   STEP       30

 LAYER ROW COL. STREAM  RCH.  FLOW INTO     FLOW TO   FLOW OUT OF   OVRLND.     DIRECT     STREAM       STREAM     STREAM     STREAM   STREAMBED  STREAMBED
                SEG.NO.  NO.  STRM. RCH.    AQUIFER    STRM. RCH.    RUNOFF     PRECIP       ET          HEAD       DEPTH      WIDTH   CONDCTNC.   GRADIENT

   1    1    1     1     1    1.7250E+01  2.0269E-01   1.7047E+01  0.000E+00  0.000E+00  0.000E+00  1.09410E+03  1.052E+00  1.112E+01  5.002E-02  1.351E+00
   1    2    2     1     2    1.7047E+01  3.1258E-01   1.6735E+01  0.000E+00  0.000E+00  0.000E+00  1.08911E+03  1.047E+00  1.103E+01  7.723E-02  1.349E+00
   1    3    3     1     3    1.6735E+01  2.6529E-01   1.6469E+01  0.000E+00  0.000E+00  0.000E+00  1.08346E+03  1.042E+00  1.094E+01  6.563E-02  1.347E+00
   1    3    4     1     4    1.6469E+01  2.4324E-01   1.6226E+01  0.000E+00  0.000E+00  0.000E+00  1.07845E+03  1.038E+00  1.085E+01  6.024E-02  1.346E+00
   1    4    5     2     1    1.4226E+01  3.0073E-01   1.3925E+01  0.000E+00  0.000E+00  0.000E+00  1.07279E+03  8.555E-01  1.200E+01  7.800E-02  1.285E+00
   1    5    6     2     2    1.3925E+01  2.3075E-01   1.3695E+01  0.000E+00  0.000E+00  0.000E+00  1.06736E+03  8.458E-01  1.200E+01  6.000E-02  1.282E+00
   1    6    6     2     3    1.3695E+01  2.3024E-01   1.3464E+01  0.000E+00  0.000E+00  0.000E+00  1.06263E+03  8.373E-01  1.200E+01  6.000E-02  1.279E+00
   1    7    6     2     4    1.3464E+01  2.2972E-01   1.3235E+01  0.000E+00  0.000E+00  0.000E+00  1.05790E+03  8.287E-01  1.200E+01  6.000E-02  1.276E+00
   1    8    6     2     5    1.3235E+01  2.2921E-01   1.3005E+01  0.000E+00  0.000E+00  0.000E+00  1.05318E+03  8.202E-01  1.200E+01  6.000E-02  1.273E+00
   1    3    5     3     1    2.0000E+00  2.8252E-01   1.7175E+00  0.000E+00  0.000E+00  0.000E+00  1.07555E+03  1.909E+00  9.636E+00  7.227E-02  1.955E+00
   1    3    6     3     2    1.7175E+00  2.4905E-01   1.4684E+00  0.000E+00  0.000E+00  0.000E+00  1.07264E+03  1.727E+00  8.909E+00  6.682E-02  1.864E+00
   1    3    7     3     3    1.4684E+00  1.9718E-01   1.2712E+00  0.000E+00  0.000E+00  0.000E+00  1.06987E+03  1.555E+00  8.218E+00  5.547E-02  1.777E+00
   1    4    8     3     4    1.2712E+00  2.2567E-01   1.0456E+00  0.000E+00  0.000E+00  0.000E+00  1.06682E+03  1.364E+00  7.455E+00  6.709E-02  1.682E+00
   1    5    8     3     5    1.0456E+00  1.5790E-01   8.8768E-01  0.000E+00  0.000E+00  0.000E+00  1.06362E+03  1.164E+00  6.655E+00  4.991E-02  1.582E+00
   1    6    8     3     6    8.8768E-01  5.5980E-02   8.3170E-01  0.000E+00  0.000E+00  0.000E+00  1.06158E+03  1.036E+00  6.145E+00  1.844E-02  1.518E+00
   1    5   10     4     1    1.0000E+01  9.0919E-02   9.9091E+00  0.000E+00  0.000E+00  0.000E+00  1.07836E+03  6.368E-01  1.000E+01  2.500E-02  1.212E+00
   1    5    9     4     2    9.9091E+00  1.8158E-01   9.7275E+00  0.000E+00  0.000E+00  0.000E+00  1.07154E+03  6.315E-01  1.000E+01  5.000E-02  1.211E+00
   1    6    8     4     3    9.7275E+00  1.2689E-01   9.6006E+00  0.000E+00  0.000E+00  0.000E+00  1.06381E+03  6.256E-01  1.000E+01  3.500E-02  1.209E+00
   1    6    8     5     1    1.0432E+01  2.2686E-01   1.0205E+01  0.000E+00  0.000E+00  0.000E+00  1.05868E+03  6.790E-01  1.542E+01  6.166E-02  1.226E+00
   1    7    7     5     2    1.0205E+01  2.7894E-01   9.9265E+00  0.000E+00  0.000E+00  0.000E+00  1.05417E+03  6.732E-01  1.519E+01  7.594E-02  1.224E+00
   1    8    7     5     3    9.9265E+00  1.9221E-01   9.7343E+00  0.000E+00  0.000E+00  0.000E+00  1.04992E+03  6.676E-01  1.497E+01  5.241E-02  1.223E+00
   1    8    6     5     4    9.7343E+00  1.3577E-01   9.5985E+00  0.000E+00  0.000E+00  0.000E+00  1.04691E+03  6.637E-01  1.482E+01  3.706E-02  1.221E+00
   1    9    6     6     1    2.2604E+01  2.4874E-01   2.2355E+01  0.000E+00  0.000E+00  0.000E+00  1.04387E+03  1.146E+00  1.200E+01  6.000E-02  1.382E+00
   1   10    7     6     2    2.2355E+01  2.4828E-01   2.2107E+01  0.000E+00  0.000E+00  0.000E+00  1.03932E+03  1.138E+00  1.200E+01  6.000E-02  1.379E+00
   1   11    7     6     3    2.2107E+01  2.4782E-01   2.1859E+01  0.000E+00  0.000E+00  0.000E+00  1.03477E+03  1.130E+00  1.200E+01  6.000E-02  1.377E+00
   1   12    7     6     4    2.1859E+01  2.4736E-01   2.1612E+01  0.000E+00  0.000E+00  0.000E+00  1.03021E+03  1.123E+00  1.200E+01  6.000E-02  1.374E+00
   1   13    7     6     5    2.1612E+01 -2.2071E-02   2.1634E+01  0.000E+00  0.000E+00  0.000E+00  1.02703E+03  1.119E+00  1.200E+01  2.400E-01 -3.065E-02
   1   14    9     7     1    1.5000E+02  1.3358E+00   1.4866E+02  0.000E+00  0.000E+00  0.000E+00  1.03987E+03  2.288E+00  5.529E+01  5.593E-01  7.961E-01
   1   13    8     7     2    1.4866E+02  1.8216E+00   1.4684E+02  0.000E+00  0.000E+00  0.000E+00  1.03478E+03  2.279E+00  5.526E+01  6.148E-01  9.876E-01
   1   13    7     7     3    1.4684E+02  1.4351E+00   1.4541E+02  0.000E+00  0.000E+00  0.000E+00  1.02969E+03  2.271E+00  5.522E+01  5.585E-01  8.566E-01
   1   13    6     8     1    1.6704E+02  8.6744E-01   1.6617E+02  0.000E+00  0.000E+00  0.000E+00  1.02480E+03  2.930E+00  4.248E+01  4.329E-01  6.679E-01
   1   13    5     8     2    1.6617E+02  1.2633E-01   1.6605E+02  0.000E+00  0.000E+00  0.000E+00  1.01855E+03  2.927E+00  4.244E+01  4.324E-01  9.738E-02
   1   13    4     8     3    1.6605E+02 -2.6024E+00   1.6865E+02  0.000E+00  0.000E+00  0.000E+00  1.01231E+03  2.935E+00  4.256E+01  4.337E+00 -2.000E-01
   1   13    3     8     4    1.6865E+02 -3.7295E+00   1.7238E+02  0.000E+00  0.000E+00  0.000E+00  1.00608E+03  2.956E+00  4.286E+01  4.367E+00 -2.847E-01
   1   13    2     8     5    1.7238E+02 -2.5981E+00   1.7498E+02  0.000E+00  0.000E+00  0.000E+00  9.99851E+02  2.976E+00  4.315E+01  4.397E+00 -1.969E-01
   1   13    1     8     6    1.7498E+02 -1.9904E+00   1.7697E+02  0.000E+00  0.000E+00  0.000E+00  9.94866E+02  2.991E+00  4.336E+01  2.651E+00 -2.502E-01
   1    8    6     9     1    0.0000E+00  0.0000E+00   0.0000E+00  0.000E+00  0.000E+00  0.000E+00  1.07875E+03  0.000E+00  4.000E+00  0.000E+00  1.000E+00
   1    8    5     9     2    0.0000E+00  0.0000E+00   0.0000E+00  0.000E+00  0.000E+00  0.000E+00  1.07825E+03  0.000E+00  4.000E+00  0.000E+00  1.000E+00





UNSATURATED ZONE PACKAGE VOLUMETRIC BUDGET FOR  TIME STEP    30 STRESS PERIOD   13
  ------------------------------------------------------------------------------



     CUMULATIVE VOLUMES      L**3       RATES FOR THIS TIME STEP      L**3/T
     ------------------                 ------------------------

           IN:                                      IN:
           ---                                      ---
        INFILTRATION =   622848231.8391          INFILTRATION =           4.4075

          OUT:                                     OUT:
          ----                                     ----
              UZF ET =   498183349.8625                UZF ET =           0.7250
        UZF RECHARGE =       73224.0000          UZF RECHARGE =       0.0000E+00

            IN - OUT =   124591657.9766              IN - OUT =           3.6825

          STORAGE:                                 STORAGE:
          --------                                 --------
      STORAGE CHANGE =   124591646.6329        STORAGE CHANGE =           3.6825

 PERCENT DISCREPANCY IS DIFFERENCE BETWEEN IN-OUT MINUS CHANGE IN STORAGE
 DIVIDED BY THE AVERAGE OF IN AND OUT TIMES 100

 PERCENT DISCREPANCY =           0.00     PERCENT DISCREPANCY =           0.00






1
  VOLUMETRIC BUDGET FOR AGRICULTURAL FIELDS AT  END OF TIME STEP   30, STRESS PERIOD  13
  ------------------------------------------------------------------------------

     CUMULATIVE VOLUMES      L**3       RATES FOR THIS TIME STEP      L**3/T
     ------------------                 ------------------------

           IN:                                      IN:
           ---                                      ---
               AG WELLS  =   146882592.0000                 AG WELLS  =           0.0000
      DIVERSION SEGMENTS =   336900352.0000        DIVERSION SEGMENTS =           0.0000
           GW IRRIGATION =           0.0000             GW IRRIGATION =           0.0000
           SW IRRIGATION =           0.0000             SW IRRIGATION =           0.0000
        SYSTEM LOSSES GW =           0.0000          SYSTEM LOSSES GW =           0.0000
        SYSTEM LOSSES SW =           0.0000          SYSTEM LOSSES SW =           0.0000

                TOTAL IN =   483782944.0000                  TOTAL IN =           0.0000

          OUT:                                     OUT:
          ----                                     ----
               AG WELLS  =           0.0000                 AG WELLS  =           0.0000
      DIVERSION SEGMENTS =           0.0000        DIVERSION SEGMENTS =           0.0000
           GW IRRIGATION =   146882592.0000             GW IRRIGATION =           0.0000
           SW IRRIGATION =   336907040.0000             SW IRRIGATION =           0.0000
        SYSTEM LOSSES GW =           0.0000          SYSTEM LOSSES GW =           0.0000
        SYSTEM LOSSES SW =           0.0000          SYSTEM LOSSES SW =           0.0000

               TOTAL OUT =   483789632.0000                 TOTAL OUT =           0.0000

                IN - OUT =       -6688.0000                  IN - OUT =           0.0000

     PERCENT DISCREPANCY =          -0.00         PERCENT DISCREPANCY =           0.00



1
  VOLUMETRIC BUDGET FOR ENTIRE MODEL AT END OF TIME STEP   30, STRESS PERIOD  13
  ------------------------------------------------------------------------------

     CUMULATIVE VOLUMES      L**3       RATES FOR THIS TIME STEP      L**3/T
     ------------------                 ------------------------

           IN:                                      IN:
           ---                                      ---
             STORAGE     =   239995440.0000               STORAGE     =           2.9290
       CONSTANT HEAD     =           0.0000         CONSTANT HEAD     =           0.0000
     HEAD DEP BOUNDS     =     9042561.0000       HEAD DEP BOUNDS     =           0.2858
      STREAM LEAKAGE     =   379003872.0000        STREAM LEAKAGE     =          11.2243
        UZF RECHARGE     =       73223.9531          UZF RECHARGE     =           0.0000
               GW ET     =           0.0000                 GW ET     =           0.0000
     SURFACE LEAKAGE     =           0.0000       SURFACE LEAKAGE     =           0.0000
           AG WELLS      =           0.0000             AG WELLS      =           0.0000

                TOTAL IN =   628115072.0000                  TOTAL IN =          14.4391

          OUT:                                     OUT:
          ----                                     ----
             STORAGE     =   127852424.0000               STORAGE     =           3.2072
       CONSTANT HEAD     =           0.0000         CONSTANT HEAD     =           0.0000
     HEAD DEP BOUNDS     =     9205285.0000       HEAD DEP BOUNDS     =           0.2894
      STREAM LEAKAGE     =   342683296.0000        STREAM LEAKAGE     =          10.9425
        UZF RECHARGE     =           0.0000          UZF RECHARGE     =           0.0000
               GW ET     =     1494030.3750                 GW ET     =           0.0000
     SURFACE LEAKAGE     =           0.0000       SURFACE LEAKAGE     =           0.0000
           AG WELLS      =   146882592.0000             AG WELLS      =           0.0000

               TOTAL OUT =   628117632.0000                 TOTAL OUT =          14.4391

                IN - OUT =       -2560.0000                  IN - OUT =      -7.6294E-05

     PERCENT DISCREPANCY =          -0.00         PERCENT DISCREPANCY =          -0.00






         TIME SUMMARY AT END OF TIME STEP   30 IN STRESS PERIOD   13
                    SECONDS     MINUTES      HOURS       DAYS        YEARS
                    -----------------------------------------------------------
   TIME STEP LENGTH  87667.      1461.1      24.352      1.0147     2.77799E-03
 STRESS PERIOD TIME 2.63000E+06  43833.      730.56      30.440     8.33397E-02
         TOTAL TIME 3.16463E+07 5.27439E+05  8790.6      366.28      1.0028    
1
1
                            STRESS PERIOD NO.   14, LENGTH =   2630000.    
                            -----------------------------------------------

                              NUMBER OF TIME STEPS =    30

                               MULTIPLIER FOR DELT =     1.000

                            INITIAL TIME STEP SIZE =   87666.66    

 REUSING NON-PARAMETER GHB CELLS FROM LAST STRESS PERIOD

      2 GHB CELLS

 REUSING STREAM SEGMENT DATA FROM LAST STRESS PERIOD



            AREAL INFILTRATION RATE
 READING ON UNIT   19 WITH FORMAT: (10F4.0)            

            1           2           3           4           5           6           7           8           9          10
 ........................................................................................................................
   1   1.2000E-09   0.000       0.000       0.000       0.000       0.000       0.000       0.000       0.000       0.000    
   2   2.1000E-09  2.0000E-09  8.0000E-10  8.5000E-09   0.000       0.000       0.000       0.000       0.000       0.000    
   3   5.0000E-10  1.1000E-09  8.8000E-09  5.5000E-09   0.000       0.000       0.000       0.000       0.000       0.000    
   4   8.5000E-09  1.1000E-09  1.1000E-09  1.1000E-09  2.0000E-09   0.000       0.000       0.000       0.000       0.000    
   5   8.5000E-09  1.1000E-09  1.1000E-09  1.1000E-09  1.1000E-09   0.000       0.000       0.000       0.000       0.000    
   6   8.5000E-09  5.2000E-09  2.1000E-09  1.1000E-09  1.5000E-09   0.000       0.000       0.000       0.000       0.000    
   7   8.5000E-09  5.2000E-09  2.1000E-09  1.2000E-09  2.0000E-09   0.000       0.000       0.000       0.000       0.000    
   8   5.0000E-10  5.2000E-09  2.1000E-09  1.2000E-09  5.0000E-09   0.000       0.000       0.000       0.000       0.000    
   9   5.0000E-10  5.2000E-09  2.1000E-09  1.2000E-09  5.0000E-09   0.000       0.000       0.000       0.000       0.000    
  10   5.0000E-10  5.2000E-09  2.1000E-09  1.2000E-09  5.8000E-09   0.000       0.000       0.000       0.000       0.000    
  11   1.0000E-10  1.1000E-09  1.1000E-09  1.2000E-09  5.0000E-09   0.000       0.000       0.000       0.000       0.000    
  12   1.1000E-09  1.1000E-09  1.1000E-09  1.1000E-09  2.0000E-09   0.000       0.000       0.000       0.000       0.000    
  13   1.1000E-09  2.2000E-09  2.2000E-09  2.1000E-09  1.0000E-09   0.000       0.000       0.000       0.000       0.000    
  14   2.0000E-10  5.5000E-09  5.5000E-09  5.2000E-09  1.0000E-09   0.000       0.000       0.000       0.000       0.000    
  15    0.000      8.8000E-09  8.8000E-09   0.000       0.000       0.000       0.000       0.000       0.000       0.000    

                  ET RATE =  5.000000E-10

 USING ET EXTINCTION DEPTH FROM PREVIOUS STRESS PERIOD. CURRENT PERIOD IS:      14

 USING EXTINCTION WATER CONTENT FROM PREVIOUS STRESS PERIOD. CURRENT PERIOD IS:      14

 USING AIR ENTRY PRESSURE FROM PREVIOUS STRESS PERIOD. CURRENT PERIOD IS:      14

 USING ROOT PRESSURE HEAD FROM PREVIOUS STRESS PERIOD. CURRENT PERIOD IS:      14

 USING ROOT ACTIVITY FROM PREVIOUS STRESS PERIOD. CURRENT PERIOD IS:      14

 PROCESSING AG STRESS PERIOD DATA

 READING AG STRESS PERIOD DATA

 READING IRRIGATION SEGMENT

 READING IRRIGATION WELL

 READING SUPPLEMENTAL WELL

 END PROCESSING AG STRESS PERIOD DATA OPTIONS
 
 SOLVING FOR HEAD 
                                                   Max.-Head-Change                         Max.-Flux-Residual
  Residual-Control   Outer-Iter.   Inner-Iter.     Column Row Layer    Maximum-Head-Change  Column Row Layer    Maximum-Flux-Residual          L2-NORM 
          0                 1           2             4    7     1       0.7900863388E-02       4    7    1         0.4152619109E+00      0.9741524620E+00
          0                 2           2             4    7     1      -0.7685399059E-03       4    7    1        -0.4152628187E-01      0.9740200495E-01
          0                 3           1             4    7     1       0.5233470619E-04       4    7    1         0.2906840135E-02      0.6816927204E-02

    ------------------------------------------------
       NWT REQUIRED            3 OUTER ITERATIONS 
       AND A TOTAL OF          5 INNER ITERATIONS.
    ------------------------------------------------

 NO OUTPUT CONTROL FOR STRESS PERIOD   14   TIME STEP    1
 
 SOLVING FOR HEAD 
                                                   Max.-Head-Change                         Max.-Flux-Residual
  Residual-Control   Outer-Iter.   Inner-Iter.     Column Row Layer    Maximum-Head-Change  Column Row Layer    Maximum-Flux-Residual          L2-NORM 
          0                 1           2             4    7     1       0.7811117777E-02       4    7    1         0.4105246026E+00      0.9757754480E+00
          0                 2           2             4    7     1      -0.7598100731E-03       4    7    1        -0.4105254890E-01      0.9752921416E-01
          0                 3           1             4    7     1       0.5174023713E-04       4    7    1         0.2873678815E-02      0.6822770956E-02

    ------------------------------------------------
       NWT REQUIRED            3 OUTER ITERATIONS 
       AND A TOTAL OF          5 INNER ITERATIONS.
    ------------------------------------------------

 NO OUTPUT CONTROL FOR STRESS PERIOD   14   TIME STEP    2
 
 SOLVING FOR HEAD 
                                                   Max.-Head-Change                         Max.-Flux-Residual
  Residual-Control   Outer-Iter.   Inner-Iter.     Column Row Layer    Maximum-Head-Change  Column Row Layer    Maximum-Flux-Residual          L2-NORM 
          0                 1           2             4    7     1       0.7722683560E-02       4    7    1         0.4058566151E+00      0.9658082937E+00
          0                 2           2             4    7     1      -0.7512078044E-03       4    7    1        -0.4058574807E-01      0.9653815327E-01
          0                 3           1             4    7     1       0.5115445492E-04       4    7    1         0.2841002763E-02      0.6753817124E-02

    ------------------------------------------------
       NWT REQUIRED            3 OUTER ITERATIONS 
       AND A TOTAL OF          5 INNER ITERATIONS.
    ------------------------------------------------

 NO OUTPUT CONTROL FOR STRESS PERIOD   14   TIME STEP    3
 
 SOLVING FOR HEAD 
                                                   Max.-Head-Change                         Max.-Flux-Residual
  Residual-Control   Outer-Iter.   Inner-Iter.     Column Row Layer    Maximum-Head-Change  Column Row Layer    Maximum-Flux-Residual          L2-NORM 
          0                 1           2             4    7     1       0.7635541145E-02       4    7    1         0.4012566215E+00      0.9561124110E+00
          0                 2           2             4    7     1      -0.7427311935E-03       4    7    1        -0.4012574665E-01      0.9557345814E-01
          0                 3           1             4    7     1       0.5057722940E-04       4    7    1         0.2808802684E-02      0.6686723453E-02

    ------------------------------------------------
       NWT REQUIRED            3 OUTER ITERATIONS 
       AND A TOTAL OF          5 INNER ITERATIONS.
    ------------------------------------------------

 NO OUTPUT CONTROL FOR STRESS PERIOD   14   TIME STEP    4
 
 SOLVING FOR HEAD 
                                                   Max.-Head-Change                         Max.-Flux-Residual
  Residual-Control   Outer-Iter.   Inner-Iter.     Column Row Layer    Maximum-Head-Change  Column Row Layer    Maximum-Flux-Residual          L2-NORM 
          0                 1           2             4    7     1       0.7549938933E-02       4    7    1         0.3967383872E+00      0.9466562258E+00
          0                 2           2             4    7     1      -0.7344044029E-03       4    7    1        -0.3967392123E-01      0.9463217431E-01
          0                 3           1             4    7     1       0.5001020592E-04       4    7    1         0.2777174910E-02      0.6621068620E-02

    ------------------------------------------------
       NWT REQUIRED            3 OUTER ITERATIONS 
       AND A TOTAL OF          5 INNER ITERATIONS.
    ------------------------------------------------

 NO OUTPUT CONTROL FOR STRESS PERIOD   14   TIME STEP    5
 
 SOLVING FOR HEAD 
                                                   Max.-Head-Change                         Max.-Flux-Residual
  Residual-Control   Outer-Iter.   Inner-Iter.     Column Row Layer    Maximum-Head-Change  Column Row Layer    Maximum-Flux-Residual          L2-NORM 
          0                 1           2             4    7     1       0.7465837182E-02       4    7    1         0.3923000106E+00      0.9374245776E+00
          0                 2           2             4    7     1      -0.7262235674E-03       4    7    1        -0.3923008167E-01      0.9371262451E-01
          0                 3           1             4    7     1       0.4945312153E-04       4    7    1         0.2746106135E-02      0.6557146160E-02

    ------------------------------------------------
       NWT REQUIRED            3 OUTER ITERATIONS 
       AND A TOTAL OF          5 INNER ITERATIONS.
    ------------------------------------------------

 NO OUTPUT CONTROL FOR STRESS PERIOD   14   TIME STEP    6
 
 SOLVING FOR HEAD 
                                                   Max.-Head-Change                         Max.-Flux-Residual
  Residual-Control   Outer-Iter.   Inner-Iter.     Column Row Layer    Maximum-Head-Change  Column Row Layer    Maximum-Flux-Residual          L2-NORM 
          0                 1           2             4    7     1       0.7382665239E-02       4    7    1         0.3879098674E+00      0.9283919192E+00
          0                 2           2             4    7     1      -0.7181331769E-03       4    7    1        -0.3879106543E-01      0.9281263982E-01
          0                 3           1             4    7     1       0.4890219633E-04       4    7    1         0.2715375003E-02      0.6494457093E-02

    ------------------------------------------------
       NWT REQUIRED            3 OUTER ITERATIONS 
       AND A TOTAL OF          5 INNER ITERATIONS.
    ------------------------------------------------

 NO OUTPUT CONTROL FOR STRESS PERIOD   14   TIME STEP    7
 
 SOLVING FOR HEAD 
                                                   Max.-Head-Change                         Max.-Flux-Residual
  Residual-Control   Outer-Iter.   Inner-Iter.     Column Row Layer    Maximum-Head-Change  Column Row Layer    Maximum-Flux-Residual          L2-NORM 
          0                 1           2             4    7     1       0.7300950729E-02       4    7    1         0.3835974972E+00      0.9195501416E+00
          0                 2           2             4    7     1      -0.7101845566E-03       4    7    1        -0.3835982659E-01      0.9193134272E-01
          0                 3           1             4    7     1       0.4836092480E-04       4    7    1         0.2685188298E-02      0.6431641782E-02

    ------------------------------------------------
       NWT REQUIRED            3 OUTER ITERATIONS 
       AND A TOTAL OF          5 INNER ITERATIONS.
    ------------------------------------------------

 NO OUTPUT CONTROL FOR STRESS PERIOD   14   TIME STEP    8
 
 SOLVING FOR HEAD 
                                                   Max.-Head-Change                         Max.-Flux-Residual
  Residual-Control   Outer-Iter.   Inner-Iter.     Column Row Layer    Maximum-Head-Change  Column Row Layer    Maximum-Flux-Residual          L2-NORM 
          0                 1           2             4    7     1       0.7220669088E-02       4    7    1         0.3793606930E+00      0.9109036344E+00
          0                 2           2             4    7     1      -0.7023753152E-03       4    7    1        -0.3793614437E-01      0.9106917782E-01
          0                 3           1             4    7     1       0.4782914528E-04       4    7    1         0.2655530553E-02      0.6372929969E-02

    ------------------------------------------------
       NWT REQUIRED            3 OUTER ITERATIONS 
       AND A TOTAL OF          5 INNER ITERATIONS.
    ------------------------------------------------

 NO OUTPUT CONTROL FOR STRESS PERIOD   14   TIME STEP    9
 
 SOLVING FOR HEAD 
                                                   Max.-Head-Change                         Max.-Flux-Residual
  Residual-Control   Outer-Iter.   Inner-Iter.     Column Row Layer    Maximum-Head-Change  Column Row Layer    Maximum-Flux-Residual          L2-NORM 
          0                 1           2             4    7     1       0.7141237965E-02       4    7    1         0.3751686164E+00      0.9024126458E+00
          0                 2           2             4    7     1      -0.6946488070E-03       4    7    1        -0.3751693496E-01      0.9022234680E-01
          0                 3           1             4    7     1       0.4730299882E-04       4    7    1         0.2626185884E-02      0.6313875914E-02

    ------------------------------------------------
       NWT REQUIRED            3 OUTER ITERATIONS 
       AND A TOTAL OF          5 INNER ITERATIONS.
    ------------------------------------------------

 NO OUTPUT CONTROL FOR STRESS PERIOD   14   TIME STEP   10
 
 SOLVING FOR HEAD 
                                                   Max.-Head-Change                         Max.-Flux-Residual
  Residual-Control   Outer-Iter.   Inner-Iter.     Column Row Layer    Maximum-Head-Change  Column Row Layer    Maximum-Flux-Residual          L2-NORM 
          0                 1           2             4    7     1       0.7063464388E-02       4    7    1         0.3710649856E+00      0.8940844708E+00
          0                 2           2             4    7     1      -0.6870835338E-03       4    7    1        -0.3710657020E-01      0.8939146425E-01
          0                 3           1             4    7     1       0.4678783235E-04       4    7    1         0.2597460375E-02      0.6255889486E-02

    ------------------------------------------------
       NWT REQUIRED            3 OUTER ITERATIONS 
       AND A TOTAL OF          5 INNER ITERATIONS.
    ------------------------------------------------

 NO OUTPUT CONTROL FOR STRESS PERIOD   14   TIME STEP   11
 
 SOLVING FOR HEAD 
                                                   Max.-Head-Change                         Max.-Flux-Residual
  Residual-Control   Outer-Iter.   Inner-Iter.     Column Row Layer    Maximum-Head-Change  Column Row Layer    Maximum-Flux-Residual          L2-NORM 
          0                 1           2             4    7     1       0.6986494528E-02       4    7    1         0.3670029480E+00      0.8859012154E+00
          0                 2           2             4    7     1      -0.6803495798E-03       4    7    1        -0.3675406128E-01      0.8859168324E-01
          0                 3           1             4    7     1       0.4632927386E-04       4    7    1         0.2572784663E-02      0.6199999808E-02

    ------------------------------------------------
       NWT REQUIRED            3 OUTER ITERATIONS 
       AND A TOTAL OF          5 INNER ITERATIONS.
    ------------------------------------------------

 NO OUTPUT CONTROL FOR STRESS PERIOD   14   TIME STEP   12
 
 SOLVING FOR HEAD 
                                                   Max.-Head-Change                         Max.-Flux-Residual
  Residual-Control   Outer-Iter.   Inner-Iter.     Column Row Layer    Maximum-Head-Change  Column Row Layer    Maximum-Flux-Residual          L2-NORM 
          0                 1           2             4    7     1       0.6908177733E-02       4    7    1         0.3629719646E+00      0.8778484703E+00
          0                 2           2             4    7     1      -0.6719784474E-03       4    7    1        -0.3629727310E-01      0.8777100633E-01
          0                 3           1             4    7     1       0.4575923090E-04       4    7    1         0.2540809509E-02      0.6142628148E-02

    ------------------------------------------------
       NWT REQUIRED            3 OUTER ITERATIONS 
       AND A TOTAL OF          5 INNER ITERATIONS.
    ------------------------------------------------

 NO OUTPUT CONTROL FOR STRESS PERIOD   14   TIME STEP   13
 
 SOLVING FOR HEAD 
                                                   Max.-Head-Change                         Max.-Flux-Residual
  Residual-Control   Outer-Iter.   Inner-Iter.     Column Row Layer    Maximum-Head-Change  Column Row Layer    Maximum-Flux-Residual          L2-NORM 
          0                 1           2             4    7     1       0.6832092163E-02       4    7    1         0.3589514749E+00      0.8699143900E+00
          0                 2           2             4    7     1      -0.6645773659E-03       4    7    1        -0.3589522211E-01      0.8697896893E-01
          0                 3           1             4    7     1       0.4525524487E-04       4    7    1         0.2512665907E-02      0.6087379335E-02

    ------------------------------------------------
       NWT REQUIRED            3 OUTER ITERATIONS 
       AND A TOTAL OF          5 INNER ITERATIONS.
    ------------------------------------------------

 NO OUTPUT CONTROL FOR STRESS PERIOD   14   TIME STEP   14
 
 SOLVING FOR HEAD 
                                                   Max.-Head-Change                         Max.-Flux-Residual
  Residual-Control   Outer-Iter.   Inner-Iter.     Column Row Layer    Maximum-Head-Change  Column Row Layer    Maximum-Flux-Residual          L2-NORM 
          0                 1           2             4    7     1       0.6757154956E-02       4    7    1         0.3549917423E+00      0.8621132895E+00
          0                 2           2             4    7     1      -0.6572879899E-03       4    7    1        -0.3549924688E-01      0.8619998626E-01
          0                 3           1             4    7     1       0.4475886552E-04       4    7    1         0.2484947660E-02      0.6032945758E-02

    ------------------------------------------------
       NWT REQUIRED            3 OUTER ITERATIONS 
       AND A TOTAL OF          5 INNER ITERATIONS.
    ------------------------------------------------

 NO OUTPUT CONTROL FOR STRESS PERIOD   14   TIME STEP   15
 
 SOLVING FOR HEAD 
                                                   Max.-Head-Change                         Max.-Flux-Residual
  Residual-Control   Outer-Iter.   Inner-Iter.     Column Row Layer    Maximum-Head-Change  Column Row Layer    Maximum-Flux-Residual          L2-NORM 
          0                 1           2             4    7     1       0.6683337480E-02       4    7    1         0.3510915506E+00      0.8544306956E+00
          0                 2           2             4    7     1      -0.6501075348E-03       4    7    1        -0.3510922583E-01      0.8543285726E-01
          0                 3           1             4    7     1       0.4426990328E-04       4    7    1         0.2457646186E-02      0.5979372614E-02

    ------------------------------------------------
       NWT REQUIRED            3 OUTER ITERATIONS 
       AND A TOTAL OF          5 INNER ITERATIONS.
    ------------------------------------------------

 NO OUTPUT CONTROL FOR STRESS PERIOD   14   TIME STEP   16
 
 SOLVING FOR HEAD 
                                                   Max.-Head-Change                         Max.-Flux-Residual
  Residual-Control   Outer-Iter.   Inner-Iter.     Column Row Layer    Maximum-Head-Change  Column Row Layer    Maximum-Flux-Residual          L2-NORM 
          0                 1           2             4    7     1       0.6610887032E-02       4    7    1         0.3472641992E+00      0.8468776374E+00
          0                 2           2             4    7     1      -0.6430600548E-03       4    7    1        -0.3472648883E-01      0.8467840004E-01
          0                 3           1             4    7     1       0.4378999686E-04       4    7    1         0.2430854633E-02      0.5926680499E-02

    ------------------------------------------------
       NWT REQUIRED            3 OUTER ITERATIONS 
       AND A TOTAL OF          5 INNER ITERATIONS.
    ------------------------------------------------

 NO OUTPUT CONTROL FOR STRESS PERIOD   14   TIME STEP   17
 
 SOLVING FOR HEAD 
                                                   Max.-Head-Change                         Max.-Flux-Residual
  Residual-Control   Outer-Iter.   Inner-Iter.     Column Row Layer    Maximum-Head-Change  Column Row Layer    Maximum-Flux-Residual          L2-NORM 
          0                 1           2             4    7     1       0.6539496216E-02       4    7    1         0.3434929422E+00      0.8394420267E+00
          0                 2           2             4    7     1      -0.6361156483E-03       4    7    1        -0.3434936133E-01      0.8393565109E-01
          0                 3           1             4    7     1       0.4331710852E-04       4    7    1         0.2404455702E-02      0.5874760946E-02

    ------------------------------------------------
       NWT REQUIRED            3 OUTER ITERATIONS 
       AND A TOTAL OF          5 INNER ITERATIONS.
    ------------------------------------------------

 NO OUTPUT CONTROL FOR STRESS PERIOD   14   TIME STEP   18
 
 SOLVING FOR HEAD 
                                                   Max.-Head-Change                         Max.-Flux-Residual
  Residual-Control   Outer-Iter.   Inner-Iter.     Column Row Layer    Maximum-Head-Change  Column Row Layer    Maximum-Flux-Residual          L2-NORM 
          0                 1           2             4    7     1       0.6469406967E-02       4    7    1         0.3397914100E+00      0.8321144756E+00
          0                 2           2             4    7     1      -0.6292978505E-03       4    7    1        -0.3397920640E-01      0.8320365952E-01
          0                 3           1             4    7     1       0.4285284218E-04       4    7    1         0.2378544863E-02      0.5823549153E-02

    ------------------------------------------------
       NWT REQUIRED            3 OUTER ITERATIONS 
       AND A TOTAL OF          5 INNER ITERATIONS.
    ------------------------------------------------

 NO OUTPUT CONTROL FOR STRESS PERIOD   14   TIME STEP   19
 
 SOLVING FOR HEAD 
                                                   Max.-Head-Change                         Max.-Flux-Residual
  Residual-Control   Outer-Iter.   Inner-Iter.     Column Row Layer    Maximum-Head-Change  Column Row Layer    Maximum-Flux-Residual          L2-NORM 
          0                 1           2             4    7     1       0.6400319837E-02       4    7    1         0.3361425776E+00      0.8248998828E+00
          0                 2           2             4    7     1      -0.6225775319E-03       4    7    1        -0.3361432148E-01      0.8248282824E-01
          0                 3           1             4    7     1       0.4239521335E-04       4    7    1         0.2353002914E-02      0.5773152301E-02

    ------------------------------------------------
       NWT REQUIRED            3 OUTER ITERATIONS 
       AND A TOTAL OF          5 INNER ITERATIONS.
    ------------------------------------------------

 NO OUTPUT CONTROL FOR STRESS PERIOD   14   TIME STEP   20
 
 SOLVING FOR HEAD 
                                                   Max.-Head-Change                         Max.-Flux-Residual
  Residual-Control   Outer-Iter.   Inner-Iter.     Column Row Layer    Maximum-Head-Change  Column Row Layer    Maximum-Flux-Residual          L2-NORM 
          0                 1           2             4    7     1       0.6332210426E-02       4    7    1         0.3325457037E+00      0.8177903306E+00
          0                 2           2             4    7     1      -0.6159523197E-03       4    7    1        -0.3325463248E-01      0.8177241292E-01
          0                 3           1             4    7     1       0.4194406108E-04       4    7    1         0.2327824692E-02      0.5723432122E-02

    ------------------------------------------------
       NWT REQUIRED            3 OUTER ITERATIONS 
       AND A TOTAL OF          5 INNER ITERATIONS.
    ------------------------------------------------

 NO OUTPUT CONTROL FOR STRESS PERIOD   14   TIME STEP   21
 
 SOLVING FOR HEAD 
                                                   Max.-Head-Change                         Max.-Flux-Residual
  Residual-Control   Outer-Iter.   Inner-Iter.     Column Row Layer    Maximum-Head-Change  Column Row Layer    Maximum-Flux-Residual          L2-NORM 
          0                 1           2             4    7     1       0.6265598114E-02       4    7    1         0.3290290931E+00      0.8107913186E+00
          0                 2           2             4    7     1      -0.6094727352E-03       4    7    1        -0.3290296985E-01      0.8107297044E-01
          0                 3           1             4    7     1       0.4150282565E-04       4    7    1         0.2303208306E-02      0.5675655013E-02

    ------------------------------------------------
       NWT REQUIRED            3 OUTER ITERATIONS 
       AND A TOTAL OF          5 INNER ITERATIONS.
    ------------------------------------------------

 NO OUTPUT CONTROL FOR STRESS PERIOD   14   TIME STEP   22
 
 SOLVING FOR HEAD 
                                                   Max.-Head-Change                         Max.-Flux-Residual
  Residual-Control   Outer-Iter.   Inner-Iter.     Column Row Layer    Maximum-Head-Change  Column Row Layer    Maximum-Flux-Residual          L2-NORM 
          0                 1           2             4    7     1       0.6199626401E-02       4    7    1         0.3255457496E+00      0.8038771750E+00
          0                 2           2             4    7     1      -0.6030554640E-03       4    7    1        -0.3255463398E-01      0.8038207342E-01
          0                 3           1             4    7     1       0.4106583354E-04       4    7    1         0.2278824807E-02      0.5626129696E-02

    ------------------------------------------------
       NWT REQUIRED            3 OUTER ITERATIONS 
       AND A TOTAL OF          5 INNER ITERATIONS.
    ------------------------------------------------

 NO OUTPUT CONTROL FOR STRESS PERIOD   14   TIME STEP   23
 
 SOLVING FOR HEAD 
                                                   Max.-Head-Change                         Max.-Flux-Residual
  Residual-Control   Outer-Iter.   Inner-Iter.     Column Row Layer    Maximum-Head-Change  Column Row Layer    Maximum-Flux-Residual          L2-NORM 
          0                 1           2             4    7     1       0.6135101631E-02       4    7    1         0.3221399763E+00      0.7970788432E+00
          0                 2           2             4    7     1      -0.5967789416E-03       4    7    1        -0.3221405519E-01      0.7970266230E-01
          0                 3           1             4    7     1       0.4063842599E-04       4    7    1         0.2254984284E-02      0.5578712167E-02

    ------------------------------------------------
       NWT REQUIRED            3 OUTER ITERATIONS 
       AND A TOTAL OF          5 INNER ITERATIONS.
    ------------------------------------------------

 NO OUTPUT CONTROL FOR STRESS PERIOD   14   TIME STEP   24
 
 SOLVING FOR HEAD 
                                                   Max.-Head-Change                         Max.-Flux-Residual
  Residual-Control   Outer-Iter.   Inner-Iter.     Column Row Layer    Maximum-Head-Change  Column Row Layer    Maximum-Flux-Residual          L2-NORM 
          0                 1           2             4    7     1       0.6071166657E-02       4    7    1         0.3187648684E+00      0.7903624094E+00
          0                 2           2             4    7     1      -0.5905597913E-03       4    7    1        -0.3187654297E-01      0.7903152127E-01
          0                 3           1             4    7     1       0.4021492544E-04       4    7    1         0.2231358451E-02      0.5531935006E-02

    ------------------------------------------------
       NWT REQUIRED            3 OUTER ITERATIONS 
       AND A TOTAL OF          5 INNER ITERATIONS.
    ------------------------------------------------

 NO OUTPUT CONTROL FOR STRESS PERIOD   14   TIME STEP   25
 
 SOLVING FOR HEAD 
                                                   Max.-Head-Change                         Max.-Flux-Residual
  Residual-Control   Outer-Iter.   Inner-Iter.     Column Row Layer    Maximum-Head-Change  Column Row Layer    Maximum-Flux-Residual          L2-NORM 
          0                 1           2             4    7     1       0.6008363004E-02       4    7    1         0.3154499118E+00      0.7837420049E+00
          0                 2           2             4    7     1      -0.5844506878E-03       4    7    1        -0.3154504592E-01      0.7836968186E-01
          0                 3           1             4    7     1       0.3979891821E-04       4    7    1         0.2208153658E-02      0.5485443123E-02

    ------------------------------------------------
       NWT REQUIRED            3 OUTER ITERATIONS 
       AND A TOTAL OF          5 INNER ITERATIONS.
    ------------------------------------------------

 NO OUTPUT CONTROL FOR STRESS PERIOD   14   TIME STEP   26
 
 SOLVING FOR HEAD 
                                                   Max.-Head-Change                         Max.-Flux-Residual
  Residual-Control   Outer-Iter.   Inner-Iter.     Column Row Layer    Maximum-Head-Change  Column Row Layer    Maximum-Flux-Residual          L2-NORM 
          0                 1           2             4    7     1       0.5946659208E-02       4    7    1         0.3121936129E+00      0.7772243150E+00
          0                 2           2             4    7     1      -0.5784485710E-03       4    7    1        -0.3121941468E-01      0.7771817133E-01
          0                 3           1             4    7     1       0.3939019648E-04       4    7    1         0.2185359463E-02      0.5439890071E-02

    ------------------------------------------------
       NWT REQUIRED            3 OUTER ITERATIONS 
       AND A TOTAL OF          5 INNER ITERATIONS.
    ------------------------------------------------

 NO OUTPUT CONTROL FOR STRESS PERIOD   14   TIME STEP   27
 
 SOLVING FOR HEAD 
                                                   Max.-Head-Change                         Max.-Flux-Residual
  Residual-Control   Outer-Iter.   Inner-Iter.     Column Row Layer    Maximum-Head-Change  Column Row Layer    Maximum-Flux-Residual          L2-NORM 
          0                 1           2             4    7     1       0.5885757083E-02       4    7    1         0.3089795540E+00      0.7707852780E+00
          0                 2           2             4    7     1      -0.5725244354E-03       4    7    1        -0.3089800747E-01      0.7707456456E-01
          0                 3           1             4    7     1       0.3898678500E-04       4    7    1         0.2162860966E-02      0.5394827269E-02

    ------------------------------------------------
       NWT REQUIRED            3 OUTER ITERATIONS 
       AND A TOTAL OF          5 INNER ITERATIONS.
    ------------------------------------------------

 NO OUTPUT CONTROL FOR STRESS PERIOD   14   TIME STEP   28
 
 SOLVING FOR HEAD 
                                                   Max.-Head-Change                         Max.-Flux-Residual
  Residual-Control   Outer-Iter.   Inner-Iter.     Column Row Layer    Maximum-Head-Change  Column Row Layer    Maximum-Flux-Residual          L2-NORM 
          0                 1           2             4    7     1       0.5825908295E-02       4    7    1         0.3058218470E+00      0.7644295942E+00
          0                 2           2             4    7     1      -0.5667027621E-03       4    7    1        -0.3058223552E-01      0.7643919496E-01
          0                 3           1             4    7     1       0.3859035064E-04       4    7    1         0.2140756938E-02      0.5350219333E-02

    ------------------------------------------------
       NWT REQUIRED            3 OUTER ITERATIONS 
       AND A TOTAL OF          5 INNER ITERATIONS.
    ------------------------------------------------

 NO OUTPUT CONTROL FOR STRESS PERIOD   14   TIME STEP   29
 
 SOLVING FOR HEAD 
                                                   Max.-Head-Change                         Max.-Flux-Residual
  Residual-Control   Outer-Iter.   Inner-Iter.     Column Row Layer    Maximum-Head-Change  Column Row Layer    Maximum-Flux-Residual          L2-NORM 
          0                 1           2             4    7     1       0.5767088740E-02       4    7    1         0.3027187540E+00      0.7581696617E+00
          0                 2           2             4    7     1      -0.5609812050E-03       4    7    1        -0.3027192499E-01      0.7581347598E-01
          0                 3           1             4    7     1       0.3820073389E-04       4    7    1         0.2119035197E-02      0.5306626433E-02

    ------------------------------------------------
       NWT REQUIRED            3 OUTER ITERATIONS 
       AND A TOTAL OF          5 INNER ITERATIONS.
    ------------------------------------------------

 NO OUTPUT CONTROL FOR STRESS PERIOD   14   TIME STEP   30



 STREAM LISTING     PERIOD     14   STEP       30

 LAYER ROW COL. STREAM  RCH.  FLOW INTO     FLOW TO   FLOW OUT OF   OVRLND.     DIRECT     STREAM       STREAM     STREAM     STREAM   STREAMBED  STREAMBED
                SEG.NO.  NO.  STRM. RCH.    AQUIFER    STRM. RCH.    RUNOFF     PRECIP       ET          HEAD       DEPTH      WIDTH   CONDCTNC.   GRADIENT

   1    1    1     1     1    1.4250E+01  1.8169E-01   1.4069E+01  0.000E+00  0.000E+00  0.000E+00  1.09404E+03  9.953E-01  1.011E+01  4.548E-02  1.332E+00
   1    2    2     1     2    1.4069E+01  2.7999E-01   1.3789E+01  0.000E+00  0.000E+00  0.000E+00  1.08905E+03  9.906E-01  1.002E+01  7.016E-02  1.330E+00
   1    3    3     1     3    1.3789E+01  2.3745E-01   1.3551E+01  0.000E+00  0.000E+00  0.000E+00  1.08340E+03  9.853E-01  9.930E+00  5.958E-02  1.328E+00
   1    3    4     1     4    1.3551E+01  2.1755E-01   1.3334E+01  0.000E+00  0.000E+00  0.000E+00  1.07839E+03  9.805E-01  9.848E+00  5.465E-02  1.327E+00
   1    4    5     2     1    1.1334E+01  2.9214E-01   1.1041E+01  0.000E+00  0.000E+00  0.000E+00  1.07268E+03  7.454E-01  1.200E+01  7.800E-02  1.248E+00
   1    5    6     2     2    1.1041E+01  2.2410E-01   1.0817E+01  0.000E+00  0.000E+00  0.000E+00  1.06724E+03  7.350E-01  1.200E+01  6.000E-02  1.245E+00
   1    6    6     2     3    1.0817E+01  2.2356E-01   1.0594E+01  0.000E+00  0.000E+00  0.000E+00  1.06252E+03  7.260E-01  1.200E+01  6.000E-02  1.242E+00
   1    7    6     2     4    1.0594E+01  2.2301E-01   1.0371E+01  0.000E+00  0.000E+00  0.000E+00  1.05779E+03  7.168E-01  1.200E+01  6.000E-02  1.239E+00
   1    8    6     2     5    1.0371E+01  2.2246E-01   1.0148E+01  0.000E+00  0.000E+00  0.000E+00  1.05307E+03  7.077E-01  1.200E+01  6.000E-02  1.236E+00
   1    3    5     3     1    2.0000E+00  2.8252E-01   1.7175E+00  0.000E+00  0.000E+00  0.000E+00  1.07555E+03  1.909E+00  9.636E+00  7.227E-02  1.955E+00
   1    3    6     3     2    1.7175E+00  2.4905E-01   1.4684E+00  0.000E+00  0.000E+00  0.000E+00  1.07264E+03  1.727E+00  8.909E+00  6.682E-02  1.864E+00
   1    3    7     3     3    1.4684E+00  1.9718E-01   1.2712E+00  0.000E+00  0.000E+00  0.000E+00  1.06987E+03  1.555E+00  8.218E+00  5.547E-02  1.777E+00
   1    4    8     3     4    1.2712E+00  2.2567E-01   1.0456E+00  0.000E+00  0.000E+00  0.000E+00  1.06682E+03  1.364E+00  7.455E+00  6.709E-02  1.682E+00
   1    5    8     3     5    1.0456E+00  1.5790E-01   8.8768E-01  0.000E+00  0.000E+00  0.000E+00  1.06362E+03  1.164E+00  6.655E+00  4.991E-02  1.582E+00
   1    6    8     3     6    8.8768E-01  5.5980E-02   8.3170E-01  0.000E+00  0.000E+00  0.000E+00  1.06158E+03  1.036E+00  6.145E+00  1.844E-02  1.518E+00
   1    5   10     4     1    1.0000E+01  9.0919E-02   9.9091E+00  0.000E+00  0.000E+00  0.000E+00  1.07836E+03  6.368E-01  1.000E+01  2.500E-02  1.212E+00
   1    5    9     4     2    9.9091E+00  1.8158E-01   9.7275E+00  0.000E+00  0.000E+00  0.000E+00  1.07154E+03  6.315E-01  1.000E+01  5.000E-02  1.211E+00
   1    6    8     4     3    9.7275E+00  1.2689E-01   9.6006E+00  0.000E+00  0.000E+00  0.000E+00  1.06381E+03  6.256E-01  1.000E+01  3.500E-02  1.209E+00
   1    6    8     5     1    1.0432E+01  2.2686E-01   1.0205E+01  0.000E+00  0.000E+00  0.000E+00  1.05868E+03  6.790E-01  1.542E+01  6.166E-02  1.226E+00
   1    7    7     5     2    1.0205E+01  2.7894E-01   9.9265E+00  0.000E+00  0.000E+00  0.000E+00  1.05417E+03  6.732E-01  1.519E+01  7.594E-02  1.224E+00
   1    8    7     5     3    9.9265E+00  1.9221E-01   9.7343E+00  0.000E+00  0.000E+00  0.000E+00  1.04992E+03  6.676E-01  1.497E+01  5.241E-02  1.223E+00
   1    8    6     5     4    9.7343E+00  1.3577E-01   9.5985E+00  0.000E+00  0.000E+00  0.000E+00  1.04691E+03  6.637E-01  1.482E+01  3.706E-02  1.221E+00
   1    9    6     6     1    1.9747E+01  2.4336E-01   1.9503E+01  0.000E+00  0.000E+00  0.000E+00  1.04378E+03  1.056E+00  1.200E+01  6.000E-02  1.352E+00
   1   10    7     6     2    1.9503E+01  2.4289E-01   1.9261E+01  0.000E+00  0.000E+00  0.000E+00  1.03923E+03  1.048E+00  1.200E+01  6.000E-02  1.349E+00
   1   11    7     6     3    1.9261E+01  2.4241E-01   1.9018E+01  0.000E+00  0.000E+00  0.000E+00  1.03468E+03  1.040E+00  1.200E+01  6.000E-02  1.347E+00
   1   12    7     6     4    1.9018E+01  2.4194E-01   1.8776E+01  0.000E+00  0.000E+00  0.000E+00  1.03012E+03  1.032E+00  1.200E+01  6.000E-02  1.344E+00
   1   13    7     6     5    1.8776E+01 -3.9605E-02   1.8816E+01  0.000E+00  0.000E+00  0.000E+00  1.02694E+03  1.029E+00  1.200E+01  2.400E-01 -5.501E-02
   1   14    9     7     1    1.5000E+02  1.3358E+00   1.4866E+02  0.000E+00  0.000E+00  0.000E+00  1.03987E+03  2.288E+00  5.529E+01  5.593E-01  7.961E-01
   1   13    8     7     2    1.4866E+02  1.8237E+00   1.4684E+02  0.000E+00  0.000E+00  0.000E+00  1.03478E+03  2.279E+00  5.526E+01  6.148E-01  9.888E-01
   1   13    7     7     3    1.4684E+02  1.4446E+00   1.4540E+02  0.000E+00  0.000E+00  0.000E+00  1.02969E+03  2.271E+00  5.522E+01  5.585E-01  8.623E-01
   1   13    6     8     1    1.6421E+02  8.6257E-01   1.6335E+02  0.000E+00  0.000E+00  0.000E+00  1.02479E+03  2.911E+00  4.221E+01  4.302E-01  6.684E-01
   1   13    5     8     2    1.6335E+02  1.2591E-01   1.6322E+02  0.000E+00  0.000E+00  0.000E+00  1.01853E+03  2.908E+00  4.216E+01  4.297E-01  9.768E-02
   1   13    4     8     3    1.6322E+02 -2.5974E+00   1.6582E+02  0.000E+00  0.000E+00  0.000E+00  1.01229E+03  2.916E+00  4.228E+01  4.309E+00 -2.009E-01
   1   13    3     8     4    1.6582E+02 -3.7265E+00   1.6955E+02  0.000E+00  0.000E+00  0.000E+00  1.00606E+03  2.937E+00  4.259E+01  4.340E+00 -2.862E-01
   1   13    2     8     5    1.6955E+02 -2.6008E+00   1.7215E+02  0.000E+00  0.000E+00  0.000E+00  9.99833E+02  2.958E+00  4.289E+01  4.370E+00 -1.984E-01
   1   13    1     8     6    1.7215E+02 -1.9921E+00   1.7414E+02  0.000E+00  0.000E+00  0.000E+00  9.94848E+02  2.973E+00  4.310E+01  2.635E+00 -2.520E-01
   1    8    6     9     1    0.0000E+00  0.0000E+00   0.0000E+00  0.000E+00  0.000E+00  0.000E+00  1.07875E+03  0.000E+00  4.000E+00  0.000E+00  1.000E+00
   1    8    5     9     2    0.0000E+00  0.0000E+00   0.0000E+00  0.000E+00  0.000E+00  0.000E+00  1.07825E+03  0.000E+00  4.000E+00  0.000E+00  1.000E+00





UNSATURATED ZONE PACKAGE VOLUMETRIC BUDGET FOR  TIME STEP    30 STRESS PERIOD   14
  ------------------------------------------------------------------------------



     CUMULATIVE VOLUMES      L**3       RATES FOR THIS TIME STEP      L**3/T
     ------------------                 ------------------------

           IN:                                      IN:
           ---                                      ---
        INFILTRATION =   634439956.3972          INFILTRATION =           4.4075

          OUT:                                     OUT:
          ----                                     ----
              UZF ET =   500090099.7357                UZF ET =           0.7250
        UZF RECHARGE =       73224.0000          UZF RECHARGE =       0.0000E+00

            IN - OUT =   134276632.6615              IN - OUT =           3.6825

          STORAGE:                                 STORAGE:
          --------                                 --------
      STORAGE CHANGE =   134276621.2535        STORAGE CHANGE =           3.6825

 PERCENT DISCREPANCY IS DIFFERENCE BETWEEN IN-OUT MINUS CHANGE IN STORAGE
 DIVIDED BY THE AVERAGE OF IN AND OUT TIMES 100

 PERCENT DISCREPANCY =           0.00     PERCENT DISCREPANCY =           0.00






1
  VOLUMETRIC BUDGET FOR AGRICULTURAL FIELDS AT  END OF TIME STEP   30, STRESS PERIOD  14
  ------------------------------------------------------------------------------

     CUMULATIVE VOLUMES      L**3       RATES FOR THIS TIME STEP      L**3/T
     ------------------                 ------------------------

           IN:                                      IN:
           ---                                      ---
               AG WELLS  =   146882592.0000                 AG WELLS  =           0.0000
      DIVERSION SEGMENTS =   336900352.0000        DIVERSION SEGMENTS =           0.0000
           GW IRRIGATION =           0.0000             GW IRRIGATION =           0.0000
           SW IRRIGATION =           0.0000             SW IRRIGATION =           0.0000
        SYSTEM LOSSES GW =           0.0000          SYSTEM LOSSES GW =           0.0000
        SYSTEM LOSSES SW =           0.0000          SYSTEM LOSSES SW =           0.0000

                TOTAL IN =   483782944.0000                  TOTAL IN =           0.0000

          OUT:                                     OUT:
          ----                                     ----
               AG WELLS  =           0.0000                 AG WELLS  =           0.0000
      DIVERSION SEGMENTS =           0.0000        DIVERSION SEGMENTS =           0.0000
           GW IRRIGATION =   146882592.0000             GW IRRIGATION =           0.0000
           SW IRRIGATION =   336907040.0000             SW IRRIGATION =           0.0000
        SYSTEM LOSSES GW =           0.0000          SYSTEM LOSSES GW =           0.0000
        SYSTEM LOSSES SW =           0.0000          SYSTEM LOSSES SW =           0.0000

               TOTAL OUT =   483789632.0000                 TOTAL OUT =           0.0000

                IN - OUT =       -6688.0000                  IN - OUT =           0.0000

     PERCENT DISCREPANCY =          -0.00         PERCENT DISCREPANCY =           0.00



1
  VOLUMETRIC BUDGET FOR ENTIRE MODEL AT END OF TIME STEP   30, STRESS PERIOD  14
  ------------------------------------------------------------------------------

     CUMULATIVE VOLUMES      L**3       RATES FOR THIS TIME STEP      L**3/T
     ------------------                 ------------------------

           IN:                                      IN:
           ---                                      ---
             STORAGE     =   247422384.0000               STORAGE     =           2.4896
       CONSTANT HEAD     =           0.0000         CONSTANT HEAD     =           0.0000
     HEAD DEP BOUNDS     =     9794106.0000       HEAD DEP BOUNDS     =           0.2858
      STREAM LEAKAGE     =   408083968.0000        STREAM LEAKAGE     =          11.0667
        UZF RECHARGE     =       73223.9531          UZF RECHARGE     =           0.0000
               GW ET     =           0.0000                 GW ET     =           0.0000
     SURFACE LEAKAGE     =           0.0000       SURFACE LEAKAGE     =           0.0000
           AG WELLS      =           0.0000             AG WELLS      =           0.0000

                TOTAL IN =   665373696.0000                  TOTAL IN =          13.8420

          OUT:                                     OUT:
          ----                                     ----
             STORAGE     =   135345952.0000               STORAGE     =           2.5967
       CONSTANT HEAD     =           0.0000         CONSTANT HEAD     =           0.0000
     HEAD DEP BOUNDS     =     9965680.0000       HEAD DEP BOUNDS     =           0.2889
      STREAM LEAKAGE     =   371687968.0000        STREAM LEAKAGE     =          10.9564
        UZF RECHARGE     =           0.0000          UZF RECHARGE     =           0.0000
               GW ET     =     1494030.3750                 GW ET     =           0.0000
     SURFACE LEAKAGE     =           0.0000       SURFACE LEAKAGE     =           0.0000
           AG WELLS      =   146882592.0000             AG WELLS      =           0.0000

               TOTAL OUT =   665376256.0000                 TOTAL OUT =          13.8420

                IN - OUT =       -2560.0000                  IN - OUT =      -2.6703E-05

     PERCENT DISCREPANCY =          -0.00         PERCENT DISCREPANCY =          -0.00






         TIME SUMMARY AT END OF TIME STEP   30 IN STRESS PERIOD   14
                    SECONDS     MINUTES      HOURS       DAYS        YEARS
                    -----------------------------------------------------------
   TIME STEP LENGTH  87667.      1461.1      24.352      1.0147     2.77799E-03
 STRESS PERIOD TIME 2.63000E+06  43833.      730.56      30.440     8.33397E-02
         TOTAL TIME 3.42763E+07 5.71272E+05  9521.2      396.72      1.0862    
1
1
                            STRESS PERIOD NO.   15, LENGTH =   2630000.    
                            -----------------------------------------------

                              NUMBER OF TIME STEPS =    30

                               MULTIPLIER FOR DELT =     1.000

                            INITIAL TIME STEP SIZE =   87666.66    

 REUSING NON-PARAMETER GHB CELLS FROM LAST STRESS PERIOD

      2 GHB CELLS

 REUSING STREAM SEGMENT DATA FROM LAST STRESS PERIOD



            AREAL INFILTRATION RATE
 READING ON UNIT   19 WITH FORMAT: (10F4.0)            

            1           2           3           4           5           6           7           8           9          10
 ........................................................................................................................
   1   1.2000E-09   0.000       0.000       0.000       0.000       0.000       0.000       0.000       0.000       0.000    
   2   2.1000E-09  2.0000E-09  8.0000E-10  8.5000E-09   0.000       0.000       0.000       0.000       0.000       0.000    
   3   5.0000E-10  1.1000E-09  8.8000E-09  5.5000E-09   0.000       0.000       0.000       0.000       0.000       0.000    
   4   8.5000E-09  1.1000E-09  1.1000E-09  1.1000E-09  2.0000E-09   0.000       0.000       0.000       0.000       0.000    
   5   8.5000E-09  1.1000E-09  1.1000E-09  1.1000E-09  1.1000E-09   0.000       0.000       0.000       0.000       0.000    
   6   8.5000E-09  5.2000E-09  2.1000E-09  1.1000E-09  1.5000E-09   0.000       0.000       0.000       0.000       0.000    
   7   8.5000E-09  5.2000E-09  2.1000E-09  1.2000E-09  2.0000E-09   0.000       0.000       0.000       0.000       0.000    
   8   5.0000E-10  5.2000E-09  2.1000E-09  1.2000E-09  5.0000E-09   0.000       0.000       0.000       0.000       0.000    
   9   5.0000E-10  5.2000E-09  2.1000E-09  1.2000E-09  5.0000E-09   0.000       0.000       0.000       0.000       0.000    
  10   5.0000E-10  5.2000E-09  2.1000E-09  1.2000E-09  5.8000E-09   0.000       0.000       0.000       0.000       0.000    
  11   1.0000E-10  1.1000E-09  1.1000E-09  1.2000E-09  5.0000E-09   0.000       0.000       0.000       0.000       0.000    
  12   1.1000E-09  1.1000E-09  1.1000E-09  1.1000E-09  2.0000E-09   0.000       0.000       0.000       0.000       0.000    
  13   1.1000E-09  2.2000E-09  2.2000E-09  2.1000E-09  1.0000E-09   0.000       0.000       0.000       0.000       0.000    
  14   2.0000E-10  5.5000E-09  5.5000E-09  5.2000E-09  1.0000E-09   0.000       0.000       0.000       0.000       0.000    
  15    0.000      8.8000E-09  8.8000E-09   0.000       0.000       0.000       0.000       0.000       0.000       0.000    

                  ET RATE =  5.000000E-10

 USING ET EXTINCTION DEPTH FROM PREVIOUS STRESS PERIOD. CURRENT PERIOD IS:      15

 USING EXTINCTION WATER CONTENT FROM PREVIOUS STRESS PERIOD. CURRENT PERIOD IS:      15

 USING AIR ENTRY PRESSURE FROM PREVIOUS STRESS PERIOD. CURRENT PERIOD IS:      15

 USING ROOT PRESSURE HEAD FROM PREVIOUS STRESS PERIOD. CURRENT PERIOD IS:      15

 USING ROOT ACTIVITY FROM PREVIOUS STRESS PERIOD. CURRENT PERIOD IS:      15

 PROCESSING AG STRESS PERIOD DATA

 READING AG STRESS PERIOD DATA

 READING IRRIGATION SEGMENT

 READING IRRIGATION WELL

 READING SUPPLEMENTAL WELL

 END PROCESSING AG STRESS PERIOD DATA OPTIONS
 
 SOLVING FOR HEAD 
                                                   Max.-Head-Change                         Max.-Flux-Residual
  Residual-Control   Outer-Iter.   Inner-Iter.     Column Row Layer    Maximum-Head-Change  Column Row Layer    Maximum-Flux-Residual          L2-NORM 
          0                 1           2             4    7     1       0.5709000476E-02       4    7    1         0.2996542388E+00      0.7519939665E+00
          0                 2           2             4    7     1      -0.5553307836E-03       4    7    1        -0.2996547229E-01      0.7519616291E-01
          0                 3           1             4    7     1       0.3781596138E-04       4    7    1         0.2097583505E-02      0.5263479823E-02

    ------------------------------------------------
       NWT REQUIRED            3 OUTER ITERATIONS 
       AND A TOTAL OF          5 INNER ITERATIONS.
    ------------------------------------------------

 NO OUTPUT CONTROL FOR STRESS PERIOD   15   TIME STEP    1
 
 SOLVING FOR HEAD 
                                                   Max.-Head-Change                         Max.-Flux-Residual
  Residual-Control   Outer-Iter.   Inner-Iter.     Column Row Layer    Maximum-Head-Change  Column Row Layer    Maximum-Flux-Residual          L2-NORM 
          0                 1           2             4    7     1       0.5651637821E-02       4    7    1         0.2966276399E+00      0.7436648495E+00
          0                 2           2             4    7     1      -0.5497509443E-03       4    7    1        -0.2966281123E-01      0.7436644572E-01
          0                 3           1             4    7     1       0.3743599522E-04       4    7    1         0.2076397245E-02      0.5205699712E-02

    ------------------------------------------------
       NWT REQUIRED            3 OUTER ITERATIONS 
       AND A TOTAL OF          5 INNER ITERATIONS.
    ------------------------------------------------

 NO OUTPUT CONTROL FOR STRESS PERIOD   15   TIME STEP    2
 
 SOLVING FOR HEAD 
                                                   Max.-Head-Change                         Max.-Flux-Residual
  Residual-Control   Outer-Iter.   Inner-Iter.     Column Row Layer    Maximum-Head-Change  Column Row Layer    Maximum-Flux-Residual          L2-NORM 
          0                 1           2             4    7     1       0.5595270885E-02       4    7    1         0.2936534500E+00      0.7371888957E+00
          0                 2           2             4    7     1      -0.5442679618E-03       4    7    1        -0.2936539113E-01      0.7371662827E-01
          0                 3           1             4    7     1       0.3706262420E-04       4    7    1         0.2055577819E-02      0.5159963817E-02

    ------------------------------------------------
       NWT REQUIRED            3 OUTER ITERATIONS 
       AND A TOTAL OF          5 INNER ITERATIONS.
    ------------------------------------------------

 NO OUTPUT CONTROL FOR STRESS PERIOD   15   TIME STEP    3
 
 SOLVING FOR HEAD 
                                                   Max.-Head-Change                         Max.-Flux-Residual
  Residual-Control   Outer-Iter.   Inner-Iter.     Column Row Layer    Maximum-Head-Change  Column Row Layer    Maximum-Flux-Residual          L2-NORM 
          0                 1           2             4    7     1       0.5539867999E-02       4    7    1         0.2907308870E+00      0.7311661428E+00
          0                 2           2             4    7     1      -0.5388787564E-03       4    7    1        -0.2907313373E-01      0.7311726016E-01
          0                 3           1             4    7     1       0.3669563981E-04       4    7    1         0.2035119805E-02      0.5117897089E-02

    ------------------------------------------------
       NWT REQUIRED            3 OUTER ITERATIONS 
       AND A TOTAL OF          5 INNER ITERATIONS.
    ------------------------------------------------

 NO OUTPUT CONTROL FOR STRESS PERIOD   15   TIME STEP    4
 
 SOLVING FOR HEAD 
                                                   Max.-Head-Change                         Max.-Flux-Residual
  Residual-Control   Outer-Iter.   Inner-Iter.     Column Row Layer    Maximum-Head-Change  Column Row Layer    Maximum-Flux-Residual          L2-NORM 
          0                 1           2             4    7     1       0.5485132223E-02       4    7    1         0.2878435212E+00      0.7252433962E+00
          0                 2           2             4    7     1      -0.5335544409E-03       4    7    1        -0.2878439606E-01      0.7252300499E-01
          0                 3           1             4    7     1       0.3633307339E-04       4    7    1         0.2014908163E-02      0.5076525773E-02

    ------------------------------------------------
       NWT REQUIRED            3 OUTER ITERATIONS 
       AND A TOTAL OF          5 INNER ITERATIONS.
    ------------------------------------------------

 NO OUTPUT CONTROL FOR STRESS PERIOD   15   TIME STEP    5
 
 SOLVING FOR HEAD 
                                                   Max.-Head-Change                         Max.-Flux-Residual
  Residual-Control   Outer-Iter.   Inner-Iter.     Column Row Layer    Maximum-Head-Change  Column Row Layer    Maximum-Flux-Residual          L2-NORM 
          0                 1           2             4    7     1       0.5431328497E-02       4    7    1         0.2850055317E+00      0.7194189409E+00
          0                 2           2             4    7     1      -0.5283207904E-03       4    7    1        -0.2850059609E-01      0.7194085102E-01
          0                 3           1             4    7     1       0.3597668155E-04       4    7    1         0.1995042163E-02      0.5035770481E-02

    ------------------------------------------------
       NWT REQUIRED            3 OUTER ITERATIONS 
       AND A TOTAL OF          5 INNER ITERATIONS.
    ------------------------------------------------

 NO OUTPUT CONTROL FOR STRESS PERIOD   15   TIME STEP    6
 
 SOLVING FOR HEAD 
                                                   Max.-Head-Change                         Max.-Flux-Residual
  Residual-Control   Outer-Iter.   Inner-Iter.     Column Row Layer    Maximum-Head-Change  Column Row Layer    Maximum-Flux-Residual          L2-NORM 
          0                 1           2             4    7     1       0.5378427933E-02       4    7    1         0.2822158680E+00      0.7136777245E+00
          0                 2           2             4    7     1      -0.5231749938E-03       4    7    1        -0.2822162874E-01      0.7136705258E-01
          0                 3           1             4    7     1       0.3562627186E-04       4    7    1         0.1975514463E-02      0.4995646105E-02

    ------------------------------------------------
       NWT REQUIRED            3 OUTER ITERATIONS 
       AND A TOTAL OF          5 INNER ITERATIONS.
    ------------------------------------------------

 NO OUTPUT CONTROL FOR STRESS PERIOD   15   TIME STEP    7
 
 SOLVING FOR HEAD 
                                                   Max.-Head-Change                         Max.-Flux-Residual
  Residual-Control   Outer-Iter.   Inner-Iter.     Column Row Layer    Maximum-Head-Change  Column Row Layer    Maximum-Flux-Residual          L2-NORM 
          0                 1           2             4    7     1       0.5326135487E-02       4    7    1         0.2794582440E+00      0.7080163740E+00
          0                 2           2             4    7     1      -0.5180883504E-03       4    7    1        -0.2794586537E-01      0.7080107614E-01
          0                 3           1             4    7     1       0.3527989083E-04       4    7    1         0.1956211032E-02      0.4955990356E-02

    ------------------------------------------------
       NWT REQUIRED            3 OUTER ITERATIONS 
       AND A TOTAL OF          5 INNER ITERATIONS.
    ------------------------------------------------

 NO OUTPUT CONTROL FOR STRESS PERIOD   15   TIME STEP    8
 
 SOLVING FOR HEAD 
                                                   Max.-Head-Change                         Max.-Flux-Residual
  Residual-Control   Outer-Iter.   Inner-Iter.     Column Row Layer    Maximum-Head-Change  Column Row Layer    Maximum-Flux-Residual          L2-NORM 
          0                 1           2             4    7     1       0.5274446992E-02       4    7    1         0.2767321499E+00      0.7024409566E+00
          0                 2           2             4    7     1      -0.5130604554E-03       4    7    1        -0.2767325501E-01      0.7024370349E-01
          0                 3           1             4    7     1       0.3493751004E-04       4    7    1         0.1937128314E-02      0.4917016600E-02

    ------------------------------------------------
       NWT REQUIRED            3 OUTER ITERATIONS 
       AND A TOTAL OF          5 INNER ITERATIONS.
    ------------------------------------------------

 NO OUTPUT CONTROL FOR STRESS PERIOD   15   TIME STEP    9
 
 SOLVING FOR HEAD 
                                                   Max.-Head-Change                         Max.-Flux-Residual
  Residual-Control   Outer-Iter.   Inner-Iter.     Column Row Layer    Maximum-Head-Change  Column Row Layer    Maximum-Flux-Residual          L2-NORM 
          0                 1           2             4    7     1       0.5223892225E-02       4    7    1         0.2740669466E+00      0.6969541429E+00
          0                 2           2             4    7     1      -0.5081428415E-03       4    7    1        -0.2740673376E-01      0.6969513478E-01
          0                 3           1             4    7     1       0.3460263842E-04       4    7    1         0.1918471814E-02      0.4878634906E-02

    ------------------------------------------------
       NWT REQUIRED            3 OUTER ITERATIONS 
       AND A TOTAL OF          5 INNER ITERATIONS.
    ------------------------------------------------

 NO OUTPUT CONTROL FOR STRESS PERIOD   15   TIME STEP   10
 
 SOLVING FOR HEAD 
                                                   Max.-Head-Change                         Max.-Flux-Residual
  Residual-Control   Outer-Iter.   Inner-Iter.     Column Row Layer    Maximum-Head-Change  Column Row Layer    Maximum-Flux-Residual          L2-NORM 
          0                 1           2             4    7     1       0.5173893387E-02       4    7    1         0.2714309488E+00      0.6915362491E+00
          0                 2           2             4    7     1      -0.5032793047E-03       4    7    1        -0.2714313308E-01      0.6915347262E-01
          0                 3           1             4    7     1       0.3427145016E-04       4    7    1         0.1900019771E-02      0.4840758477E-02

    ------------------------------------------------
       NWT REQUIRED            3 OUTER ITERATIONS 
       AND A TOTAL OF          5 INNER ITERATIONS.
    ------------------------------------------------

 NO OUTPUT CONTROL FOR STRESS PERIOD   15   TIME STEP   11
 
 SOLVING FOR HEAD 
                                                   Max.-Head-Change                         Max.-Flux-Residual
  Residual-Control   Outer-Iter.   Inner-Iter.     Column Row Layer    Maximum-Head-Change  Column Row Layer    Maximum-Flux-Residual          L2-NORM 
          0                 1           2             4    7     1       0.5124449097E-02       4    7    1         0.2688237749E+00      0.6861941008E+00
          0                 2           2             4    7     1      -0.4984697107E-03       4    7    1        -0.2688241482E-01      0.6861930393E-01
          0                 3           1             4    7     1       0.3394393458E-04       4    7    1         0.1881769495E-02      0.4803347416E-02

    ------------------------------------------------
       NWT REQUIRED            3 OUTER ITERATIONS 
       AND A TOTAL OF          5 INNER ITERATIONS.
    ------------------------------------------------

 NO OUTPUT CONTROL FOR STRESS PERIOD   15   TIME STEP   12
 
 SOLVING FOR HEAD 
                                                   Max.-Head-Change                         Max.-Flux-Residual
  Residual-Control   Outer-Iter.   Inner-Iter.     Column Row Layer    Maximum-Head-Change  Column Row Layer    Maximum-Flux-Residual          L2-NORM 
          0                 1           2             4    7     1       0.5075815839E-02       4    7    1         0.2662601426E+00      0.6809173471E+00
          0                 2           2             4    7     1      -0.4937390082E-03       4    7    1        -0.2662605074E-01      0.6809166697E-01
          0                 3           1             4    7     1       0.3362179149E-04       4    7    1         0.1863823999E-02      0.4766417273E-02

    ------------------------------------------------
       NWT REQUIRED            3 OUTER ITERATIONS 
       AND A TOTAL OF          5 INNER ITERATIONS.
    ------------------------------------------------

 NO OUTPUT CONTROL FOR STRESS PERIOD   15   TIME STEP   13
 
 SOLVING FOR HEAD 
                                                   Max.-Head-Change                         Max.-Flux-Residual
  Residual-Control   Outer-Iter.   Inner-Iter.     Column Row Layer    Maximum-Head-Change  Column Row Layer    Maximum-Flux-Residual          L2-NORM 
          0                 1           2             4    7     1       0.5027974846E-02       4    7    1         0.2637385611E+00      0.6757164465E+00
          0                 2           2             4    7     1      -0.4890853720E-03       4    7    1        -0.2637389176E-01      0.6757167498E-01
          0                 3           1             4    7     1       0.3330489639E-04       4    7    1         0.1846172885E-02      0.4730076692E-02

    ------------------------------------------------
       NWT REQUIRED            3 OUTER ITERATIONS 
       AND A TOTAL OF          5 INNER ITERATIONS.
    ------------------------------------------------

 NO OUTPUT CONTROL FOR STRESS PERIOD   15   TIME STEP   14
 
 SOLVING FOR HEAD 
                                                   Max.-Head-Change                         Max.-Flux-Residual
  Residual-Control   Outer-Iter.   Inner-Iter.     Column Row Layer    Maximum-Head-Change  Column Row Layer    Maximum-Flux-Residual          L2-NORM 
          0                 1           2             4    7     1       0.4980907240E-02       4    7    1         0.2612580577E+00      0.6705785452E+00
          0                 2           2             4    7     1      -0.4845069658E-03       4    7    1        -0.2612584063E-01      0.6705772339E-01
          0                 3           1             4    7     1       0.3299312385E-04       4    7    1         0.1828809293E-02      0.4693991041E-02

    ------------------------------------------------
       NWT REQUIRED            3 OUTER ITERATIONS 
       AND A TOTAL OF          5 INNER ITERATIONS.
    ------------------------------------------------

 NO OUTPUT CONTROL FOR STRESS PERIOD   15   TIME STEP   15
 
 SOLVING FOR HEAD 
                                                   Max.-Head-Change                         Max.-Flux-Residual
  Residual-Control   Outer-Iter.   Inner-Iter.     Column Row Layer    Maximum-Head-Change  Column Row Layer    Maximum-Flux-Residual          L2-NORM 
          0                 1           2             4    7     1       0.4934319815E-02       4    7    1         0.2588028640E+00      0.6655043474E+00
          0                 2           2             4    7     1      -0.4799752679E-03       4    7    1        -0.2588032048E-01      0.6655040836E-01
          0                 3           1             4    7     1       0.3268453196E-04       4    7    1         0.1811622889E-02      0.4658519122E-02

    ------------------------------------------------
       NWT REQUIRED            3 OUTER ITERATIONS 
       AND A TOTAL OF          5 INNER ITERATIONS.
    ------------------------------------------------

 NO OUTPUT CONTROL FOR STRESS PERIOD   15   TIME STEP   16
 
 SOLVING FOR HEAD 
                                                   Max.-Head-Change                         Max.-Flux-Residual
  Residual-Control   Outer-Iter.   Inner-Iter.     Column Row Layer    Maximum-Head-Change  Column Row Layer    Maximum-Flux-Residual          L2-NORM 
          0                 1           2             4    7     1       0.4888205515E-02       4    7    1         0.2563725670E+00      0.6604894276E+00
          0                 2           2             4    7     1      -0.4754895930E-03       4    7    1        -0.2563729002E-01      0.6604891163E-01
          0                 3           1             4    7     1       0.3237907458E-04       4    7    1         0.1794610766E-02      0.4623422010E-02

    ------------------------------------------------
       NWT REQUIRED            3 OUTER ITERATIONS 
       AND A TOTAL OF          5 INNER ITERATIONS.
    ------------------------------------------------

 NO OUTPUT CONTROL FOR STRESS PERIOD   15   TIME STEP   17
 
 SOLVING FOR HEAD 
                                                   Max.-Head-Change                         Max.-Flux-Residual
  Residual-Control   Outer-Iter.   Inner-Iter.     Column Row Layer    Maximum-Head-Change  Column Row Layer    Maximum-Flux-Residual          L2-NORM 
          0                 1           2             4    7     1       0.4843108721E-02       4    7    1         0.2539963800E+00      0.6555501719E+00
          0                 2           2             4    7     1      -0.4711028938E-03       4    7    1        -0.2539967060E-01      0.6555496548E-01
          0                 3           1             4    7     1       0.3208035599E-04       4    7    1         0.1777977387E-02      0.4588813140E-02

    ------------------------------------------------
       NWT REQUIRED            3 OUTER ITERATIONS 
       AND A TOTAL OF          5 INNER ITERATIONS.
    ------------------------------------------------

 NO OUTPUT CONTROL FOR STRESS PERIOD   15   TIME STEP   18
 
 SOLVING FOR HEAD 
                                                   Max.-Head-Change                         Max.-Flux-Residual
  Residual-Control   Outer-Iter.   Inner-Iter.     Column Row Layer    Maximum-Head-Change  Column Row Layer    Maximum-Flux-Residual          L2-NORM 
          0                 1           2             4    7     1       0.4798452596E-02       4    7    1         0.2516433702E+00      0.6506687617E+00
          0                 2           2             4    7     1      -0.4667590603E-03       4    7    1        -0.2516436890E-01      0.6506681859E-01
          0                 3           1             4    7     1       0.3178455771E-04       4    7    1         0.1761506294E-02      0.4554660601E-02

    ------------------------------------------------
       NWT REQUIRED            3 OUTER ITERATIONS 
       AND A TOTAL OF          5 INNER ITERATIONS.
    ------------------------------------------------

 NO OUTPUT CONTROL FOR STRESS PERIOD   15   TIME STEP   19
 
 SOLVING FOR HEAD 
                                                   Max.-Head-Change                         Max.-Flux-Residual
  Residual-Control   Outer-Iter.   Inner-Iter.     Column Row Layer    Maximum-Head-Change  Column Row Layer    Maximum-Flux-Residual          L2-NORM 
          0                 1           2             4    7     1       0.4754500481E-02       4    7    1         0.2493279983E+00      0.6458423310E+00
          0                 2           2             4    7     1      -0.4624837080E-03       4    7    1        -0.2493283102E-01      0.6458415921E-01
          0                 3           1             4    7     1       0.3149342237E-04       4    7    1         0.1745298637E-02      0.4520878788E-02

    ------------------------------------------------
       NWT REQUIRED            3 OUTER ITERATIONS 
       AND A TOTAL OF          5 INNER ITERATIONS.
    ------------------------------------------------

 NO OUTPUT CONTROL FOR STRESS PERIOD   15   TIME STEP   20
 
 SOLVING FOR HEAD 
                                                   Max.-Head-Change                         Max.-Flux-Residual
  Residual-Control   Outer-Iter.   Inner-Iter.     Column Row Layer    Maximum-Head-Change  Column Row Layer    Maximum-Flux-Residual          L2-NORM 
          0                 1           2             4    7     1       0.4710975132E-02       4    7    1         0.2470343382E+00      0.6410830010E+00
          0                 2           2             4    7     1      -0.4582498682E-03       4    7    1        -0.2470346434E-01      0.6410820737E-01
          0                 3           1             4    7     1       0.3120511361E-04       4    7    1         0.1729242959E-02      0.4487569477E-02

    ------------------------------------------------
       NWT REQUIRED            3 OUTER ITERATIONS 
       AND A TOTAL OF          5 INNER ITERATIONS.
    ------------------------------------------------

 NO OUTPUT CONTROL FOR STRESS PERIOD   15   TIME STEP   21
 
 SOLVING FOR HEAD 
                                                   Max.-Head-Change                         Max.-Flux-Residual
  Residual-Control   Outer-Iter.   Inner-Iter.     Column Row Layer    Maximum-Head-Change  Column Row Layer    Maximum-Flux-Residual          L2-NORM 
          0                 1           2             4    7     1       0.4668128674E-02       4    7    1         0.2447775957E+00      0.6363675403E+00
          0                 2           2             4    7     1      -0.4540820661E-03       4    7    1        -0.2447778940E-01      0.6363662679E-01
          0                 3           1             4    7     1       0.3092130189E-04       4    7    1         0.1713445716E-02      0.4454552312E-02

    ------------------------------------------------
       NWT REQUIRED            3 OUTER ITERATIONS 
       AND A TOTAL OF          5 INNER ITERATIONS.
    ------------------------------------------------

 NO OUTPUT CONTROL FOR STRESS PERIOD   15   TIME STEP   22
 
 SOLVING FOR HEAD 
                                                   Max.-Head-Change                         Max.-Flux-Residual
  Residual-Control   Outer-Iter.   Inner-Iter.     Column Row Layer    Maximum-Head-Change  Column Row Layer    Maximum-Flux-Residual          L2-NORM 
          0                 1           2             4    7     1       0.4625953242E-02       4    7    1         0.2425560527E+00      0.6317177833E+00
          0                 2           2             4    7     1      -0.4499795372E-03       4    7    1        -0.2425563448E-01      0.6317163110E-01
          0                 3           1             4    7     1       0.3064193465E-04       4    7    1         0.1697894857E-02      0.4421998356E-02

    ------------------------------------------------
       NWT REQUIRED            3 OUTER ITERATIONS 
       AND A TOTAL OF          5 INNER ITERATIONS.
    ------------------------------------------------

 NO OUTPUT CONTROL FOR STRESS PERIOD   15   TIME STEP   23
 
 SOLVING FOR HEAD 
                                                   Max.-Head-Change                         Max.-Flux-Residual
  Residual-Control   Outer-Iter.   Inner-Iter.     Column Row Layer    Maximum-Head-Change  Column Row Layer    Maximum-Flux-Residual          L2-NORM 
          0                 1           2             4    7     1       0.4584159657E-02       4    7    1         0.2403545112E+00      0.6271181169E+00
          0                 2           2             4    7     1      -0.4459141518E-03       4    7    1        -0.2403547969E-01      0.6271164142E-01
          0                 3           1             4    7     1       0.3036509722E-04       4    7    1         0.1682484028E-02      0.4389803854E-02

    ------------------------------------------------
       NWT REQUIRED            3 OUTER ITERATIONS 
       AND A TOTAL OF          5 INNER ITERATIONS.
    ------------------------------------------------

 NO OUTPUT CONTROL FOR STRESS PERIOD   15   TIME STEP   24
 
 SOLVING FOR HEAD 
                                                   Max.-Head-Change                         Max.-Flux-Residual
  Residual-Control   Outer-Iter.   Inner-Iter.     Column Row Layer    Maximum-Head-Change  Column Row Layer    Maximum-Flux-Residual          L2-NORM 
          0                 1           2             4    7     1       0.4543291597E-02       4    7    1         0.2382023492E+00      0.6225880772E+00
          0                 2           2             4    7     1      -0.4419387953E-03       4    7    1        -0.2382026291E-01      0.6225859512E-01
          0                 3           1             4    7     1       0.3009439009E-04       4    7    1         0.1667418861E-02      0.4358066031E-02

    ------------------------------------------------
       NWT REQUIRED            3 OUTER ITERATIONS 
       AND A TOTAL OF          5 INNER ITERATIONS.
    ------------------------------------------------

 NO OUTPUT CONTROL FOR STRESS PERIOD   15   TIME STEP   25
 
 SOLVING FOR HEAD 
                                                   Max.-Head-Change                         Max.-Flux-Residual
  Residual-Control   Outer-Iter.   Inner-Iter.     Column Row Layer    Maximum-Head-Change  Column Row Layer    Maximum-Flux-Residual          L2-NORM 
          0                 1           2             4    7     1       0.4502503057E-02       4    7    1         0.2360538022E+00      0.6180960379E+00
          0                 2           2             4    7     1      -0.4379711735E-03       4    7    1        -0.2360540759E-01      0.6180938965E-01
          0                 3           1             4    7     1       0.2982421004E-04       4    7    1         0.1652378990E-02      0.4326634598E-02

    ------------------------------------------------
       NWT REQUIRED            3 OUTER ITERATIONS 
       AND A TOTAL OF          5 INNER ITERATIONS.
    ------------------------------------------------

 NO OUTPUT CONTROL FOR STRESS PERIOD   15   TIME STEP   26
 
 SOLVING FOR HEAD 
                                                   Max.-Head-Change                         Max.-Flux-Residual
  Residual-Control   Outer-Iter.   Inner-Iter.     Column Row Layer    Maximum-Head-Change  Column Row Layer    Maximum-Flux-Residual          L2-NORM 
          0                 1           2             4    7     1       0.4462613565E-02       4    7    1         0.2339537509E+00      0.6136590307E+00
          0                 2           2             4    7     1      -0.4340910057E-03       4    7    1        -0.2339540190E-01      0.6136566521E-01
          0                 3           1             4    7     1       0.2955998539E-04       4    7    1         0.1637678606E-02      0.4295586131E-02

    ------------------------------------------------
       NWT REQUIRED            3 OUTER ITERATIONS 
       AND A TOTAL OF          5 INNER ITERATIONS.
    ------------------------------------------------

 NO OUTPUT CONTROL FOR STRESS PERIOD   15   TIME STEP   27
 
 SOLVING FOR HEAD 
                                                   Max.-Head-Change                         Max.-Flux-Residual
  Residual-Control   Outer-Iter.   Inner-Iter.     Column Row Layer    Maximum-Head-Change  Column Row Layer    Maximum-Flux-Residual          L2-NORM 
          0                 1           2             4    7     1       0.4423060132E-02       4    7    1         0.2318707319E+00      0.6092717399E+00
          0                 2           2             4    7     1      -0.4302435267E-03       4    7    1        -0.2318709944E-01      0.6092691126E-01
          0                 3           1             4    7     1       0.2929798595E-04       4    7    1         0.1623097424E-02      0.4264868677E-02

    ------------------------------------------------
       NWT REQUIRED            3 OUTER ITERATIONS 
       AND A TOTAL OF          5 INNER ITERATIONS.
    ------------------------------------------------

 NO OUTPUT CONTROL FOR STRESS PERIOD   15   TIME STEP   28
 
 SOLVING FOR HEAD 
                                                   Max.-Head-Change                         Max.-Flux-Residual
  Residual-Control   Outer-Iter.   Inner-Iter.     Column Row Layer    Maximum-Head-Change  Column Row Layer    Maximum-Flux-Residual          L2-NORM 
          0                 1           2             4   13     1       0.4495352111E-02       4   13    1         0.2585177896E+00      0.7740313724E+00
          0                 2           2             7   13     1      -0.9997955250E-03       7   13    1        -0.5549132981E-01      0.9352581129E-01
          0                 3           1             7   13     1       0.6806336523E-04       7   13    1         0.3883332444E-02      0.6485803814E-02

    ------------------------------------------------
       NWT REQUIRED            3 OUTER ITERATIONS 
       AND A TOTAL OF          5 INNER ITERATIONS.
    ------------------------------------------------

 NO OUTPUT CONTROL FOR STRESS PERIOD   15   TIME STEP   29
 
 SOLVING FOR HEAD 
                                                   Max.-Head-Change                         Max.-Flux-Residual
  Residual-Control   Outer-Iter.   Inner-Iter.     Column Row Layer    Maximum-Head-Change  Column Row Layer    Maximum-Flux-Residual          L2-NORM 
          0                 1           2             4   13     1       0.2192198584E-01       4   13    1         0.1265587960E+01      0.2367083290E+01
          0                 2           2             4   13     1      -0.2109187795E-02       4   13    1        -0.1252015128E+00      0.2301463614E+00
          0                 3           2             4   13     1       0.1414499651E-03       4   13    1         0.8633145167E-02      0.1549815044E-01
          0                 4           1             4   13     1      -0.5494652501E-05       4   13    1        -0.3448393936E-03      0.5950126151E-03

    ------------------------------------------------
       NWT REQUIRED            4 OUTER ITERATIONS 
       AND A TOTAL OF          7 INNER ITERATIONS.
    ------------------------------------------------

 NO OUTPUT CONTROL FOR STRESS PERIOD   15   TIME STEP   30



 STREAM LISTING     PERIOD     15   STEP       30

 LAYER ROW COL. STREAM  RCH.  FLOW INTO     FLOW TO   FLOW OUT OF   OVRLND.     DIRECT     STREAM       STREAM     STREAM     STREAM   STREAMBED  STREAMBED
                SEG.NO.  NO.  STRM. RCH.    AQUIFER    STRM. RCH.    RUNOFF     PRECIP       ET          HEAD       DEPTH      WIDTH   CONDCTNC.   GRADIENT

   1    1    1     1     1    7.3501E+01  4.1745E-01   7.3084E+01  0.000E+00  0.000E+00  0.000E+00  1.09473E+03  1.681E+00  1.982E+01  8.917E-02  1.560E+00
   1    2    2     1     2    7.3084E+01  6.4666E-01   7.2437E+01  0.000E+00  0.000E+00  0.000E+00  1.08973E+03  1.675E+00  1.976E+01  1.383E-01  1.558E+00
   1    3    3     1     3    7.2437E+01  5.5167E-01   7.1885E+01  0.000E+00  0.000E+00  0.000E+00  1.08409E+03  1.669E+00  1.969E+01  1.182E-01  1.556E+00
   1    3    4     1     4    7.1885E+01  5.0815E-01   7.1377E+01  0.000E+00  0.000E+00  0.000E+00  1.07907E+03  1.663E+00  1.963E+01  1.090E-01  1.554E+00
   1    4    5     2     1    6.9377E+01  4.0746E-01   6.8970E+01  0.000E+00  0.000E+00  0.000E+00  1.07416E+03  2.224E+00  1.200E+01  7.800E-02  1.741E+00
   1    5    6     2     2    6.8970E+01  3.1301E-01   6.8657E+01  0.000E+00  0.000E+00  0.000E+00  1.06873E+03  2.217E+00  1.200E+01  6.000E-02  1.739E+00
   1    6    6     2     3    6.8657E+01  3.1265E-01   6.8344E+01  0.000E+00  0.000E+00  0.000E+00  1.06400E+03  2.211E+00  1.200E+01  6.000E-02  1.737E+00
   1    7    6     2     4    6.8344E+01  3.1229E-01   6.8032E+01  0.000E+00  0.000E+00  0.000E+00  1.05928E+03  2.205E+00  1.200E+01  6.000E-02  1.735E+00
   1    8    6     2     5    6.8032E+01  3.1192E-01   6.7720E+01  0.000E+00  0.000E+00  0.000E+00  1.05456E+03  2.199E+00  1.200E+01  6.000E-02  1.733E+00
   1    3    5     3     1    2.0000E+00  2.8252E-01   1.7175E+00  0.000E+00  0.000E+00  0.000E+00  1.07555E+03  1.909E+00  9.636E+00  7.227E-02  1.955E+00
   1    3    6     3     2    1.7175E+00  2.4905E-01   1.4684E+00  0.000E+00  0.000E+00  0.000E+00  1.07264E+03  1.727E+00  8.909E+00  6.682E-02  1.864E+00
   1    3    7     3     3    1.4684E+00  1.9718E-01   1.2712E+00  0.000E+00  0.000E+00  0.000E+00  1.06987E+03  1.555E+00  8.218E+00  5.547E-02  1.777E+00
   1    4    8     3     4    1.2712E+00  2.2567E-01   1.0456E+00  0.000E+00  0.000E+00  0.000E+00  1.06682E+03  1.364E+00  7.455E+00  6.709E-02  1.682E+00
   1    5    8     3     5    1.0456E+00  1.5790E-01   8.8768E-01  0.000E+00  0.000E+00  0.000E+00  1.06362E+03  1.164E+00  6.655E+00  4.991E-02  1.582E+00
   1    6    8     3     6    8.8768E-01  5.5980E-02   8.3170E-01  0.000E+00  0.000E+00  0.000E+00  1.06158E+03  1.036E+00  6.145E+00  1.844E-02  1.518E+00
   1    5   10     4     1    1.0000E+01  9.0919E-02   9.9091E+00  0.000E+00  0.000E+00  0.000E+00  1.07836E+03  6.368E-01  1.000E+01  2.500E-02  1.212E+00
   1    5    9     4     2    9.9091E+00  1.8158E-01   9.7275E+00  0.000E+00  0.000E+00  0.000E+00  1.07154E+03  6.315E-01  1.000E+01  5.000E-02  1.211E+00
   1    6    8     4     3    9.7275E+00  1.2689E-01   9.6006E+00  0.000E+00  0.000E+00  0.000E+00  1.06381E+03  6.256E-01  1.000E+01  3.500E-02  1.209E+00
   1    6    8     5     1    1.0432E+01  2.2686E-01   1.0205E+01  0.000E+00  0.000E+00  0.000E+00  1.05868E+03  6.790E-01  1.542E+01  6.166E-02  1.226E+00
   1    7    7     5     2    1.0205E+01  2.7894E-01   9.9265E+00  0.000E+00  0.000E+00  0.000E+00  1.05417E+03  6.732E-01  1.519E+01  7.594E-02  1.224E+00
   1    8    7     5     3    9.9265E+00  1.9221E-01   9.7343E+00  0.000E+00  0.000E+00  0.000E+00  1.04992E+03  6.676E-01  1.497E+01  5.241E-02  1.223E+00
   1    8    6     5     4    9.7343E+00  1.3577E-01   9.5985E+00  0.000E+00  0.000E+00  0.000E+00  1.04691E+03  6.637E-01  1.482E+01  3.706E-02  1.221E+00
   1    9    6     6     1    7.7318E+01  3.2406E-01   7.6994E+01  0.000E+00  0.000E+00  0.000E+00  1.04513E+03  2.401E+00  1.200E+01  6.000E-02  1.800E+00
   1   10    7     6     2    7.6994E+01  3.2370E-01   7.6671E+01  0.000E+00  0.000E+00  0.000E+00  1.04058E+03  2.395E+00  1.200E+01  6.000E-02  1.798E+00
   1   11    7     6     3    7.6671E+01  3.2333E-01   7.6347E+01  0.000E+00  0.000E+00  0.000E+00  1.03603E+03  2.389E+00  1.200E+01  6.000E-02  1.796E+00
   1   12    7     6     4    7.6347E+01  3.2297E-01   7.6024E+01  0.000E+00  0.000E+00  0.000E+00  1.03147E+03  2.383E+00  1.200E+01  6.000E-02  1.794E+00
   1   13    7     6     5    7.6024E+01  2.8634E-02   7.5996E+01  0.000E+00  0.000E+00  0.000E+00  1.02829E+03  2.380E+00  1.200E+01  2.400E-02  3.977E-01
   1   14    9     7     1    1.5000E+02  1.3360E+00   1.4866E+02  0.000E+00  0.000E+00  0.000E+00  1.03987E+03  2.288E+00  5.529E+01  5.593E-01  7.962E-01
   1   13    8     7     2    1.4866E+02  1.8262E+00   1.4684E+02  0.000E+00  0.000E+00  0.000E+00  1.03478E+03  2.279E+00  5.526E+01  6.148E-01  9.902E-01
   1   13    7     7     3    1.4684E+02  1.4488E+00   1.4539E+02  0.000E+00  0.000E+00  0.000E+00  1.02969E+03  2.271E+00  5.522E+01  5.585E-01  8.648E-01
   1   13    6     8     1    2.2138E+02  1.1350E+00   2.2025E+02  0.000E+00  0.000E+00  0.000E+00  1.02513E+03  3.256E+00  4.722E+01  4.812E-01  7.863E-01
   1   13    5     8     2    2.2025E+02  3.1054E-01   2.1994E+02  0.000E+00  0.000E+00  0.000E+00  1.01888E+03  3.252E+00  4.716E+01  4.806E-01  2.154E-01
   1   13    4     8     3    2.1994E+02 -1.3846E+00   2.2132E+02  0.000E+00  0.000E+00  0.000E+00  1.01263E+03  3.255E+00  4.720E+01  4.810E+00 -9.595E-02
   1   13    3     8     4    2.2132E+02 -2.6665E+00   2.2399E+02  0.000E+00  0.000E+00  0.000E+00  1.00639E+03  3.267E+00  4.737E+01  4.827E+00 -1.842E-01
   1   13    2     8     5    2.2399E+02 -1.4632E+00   2.2545E+02  0.000E+00  0.000E+00  0.000E+00  1.00015E+03  3.278E+00  4.753E+01  4.843E+00 -1.007E-01
   1   13    1     8     6    2.2545E+02 -1.3336E+00   2.2679E+02  0.000E+00  0.000E+00  0.000E+00  9.95161E+02  3.286E+00  4.764E+01  2.913E+00 -1.526E-01
   1    8    6     9     1    0.0000E+00  0.0000E+00   0.0000E+00  0.000E+00  0.000E+00  0.000E+00  1.07875E+03  0.000E+00  4.000E+00  0.000E+00  1.000E+00
   1    8    5     9     2    0.0000E+00  0.0000E+00   0.0000E+00  0.000E+00  0.000E+00  0.000E+00  1.07825E+03  0.000E+00  4.000E+00  0.000E+00  1.000E+00





UNSATURATED ZONE PACKAGE VOLUMETRIC BUDGET FOR  TIME STEP    30 STRESS PERIOD   15
  ------------------------------------------------------------------------------



     CUMULATIVE VOLUMES      L**3       RATES FOR THIS TIME STEP      L**3/T
     ------------------                 ------------------------

           IN:                                      IN:
           ---                                      ---
        INFILTRATION =   646031680.9553          INFILTRATION =           4.4075

          OUT:                                     OUT:
          ----                                     ----
              UZF ET =   501996849.6085                UZF ET =           0.7250
        UZF RECHARGE =       73224.0000          UZF RECHARGE =       0.0000E+00

            IN - OUT =   143961607.3468              IN - OUT =           3.6825

          STORAGE:                                 STORAGE:
          --------                                 --------
      STORAGE CHANGE =   143961595.8684        STORAGE CHANGE =           3.6825

 PERCENT DISCREPANCY IS DIFFERENCE BETWEEN IN-OUT MINUS CHANGE IN STORAGE
 DIVIDED BY THE AVERAGE OF IN AND OUT TIMES 100

 PERCENT DISCREPANCY =           0.00     PERCENT DISCREPANCY =           0.00






1
  VOLUMETRIC BUDGET FOR AGRICULTURAL FIELDS AT  END OF TIME STEP   30, STRESS PERIOD  15
  ------------------------------------------------------------------------------

     CUMULATIVE VOLUMES      L**3       RATES FOR THIS TIME STEP      L**3/T
     ------------------                 ------------------------

           IN:                                      IN:
           ---                                      ---
               AG WELLS  =   146882592.0000                 AG WELLS  =           0.0000
      DIVERSION SEGMENTS =   336900352.0000        DIVERSION SEGMENTS =           0.0000
           GW IRRIGATION =           0.0000             GW IRRIGATION =           0.0000
           SW IRRIGATION =           0.0000             SW IRRIGATION =           0.0000
        SYSTEM LOSSES GW =           0.0000          SYSTEM LOSSES GW =           0.0000
        SYSTEM LOSSES SW =           0.0000          SYSTEM LOSSES SW =           0.0000

                TOTAL IN =   483782944.0000                  TOTAL IN =           0.0000

          OUT:                                     OUT:
          ----                                     ----
               AG WELLS  =           0.0000                 AG WELLS  =           0.0000
      DIVERSION SEGMENTS =           0.0000        DIVERSION SEGMENTS =           0.0000
           GW IRRIGATION =   146882592.0000             GW IRRIGATION =           0.0000
           SW IRRIGATION =   336907040.0000             SW IRRIGATION =           0.0000
        SYSTEM LOSSES GW =           0.0000          SYSTEM LOSSES GW =           0.0000
        SYSTEM LOSSES SW =           0.0000          SYSTEM LOSSES SW =           0.0000

               TOTAL OUT =   483789632.0000                 TOTAL OUT =           0.0000

                IN - OUT =       -6688.0000                  IN - OUT =           0.0000

     PERCENT DISCREPANCY =          -0.00         PERCENT DISCREPANCY =           0.00



1
  VOLUMETRIC BUDGET FOR ENTIRE MODEL AT END OF TIME STEP   30, STRESS PERIOD  15
  ------------------------------------------------------------------------------

     CUMULATIVE VOLUMES      L**3       RATES FOR THIS TIME STEP      L**3/T
     ------------------                 ------------------------

           IN:                                      IN:
           ---                                      ---
             STORAGE     =   252950816.0000               STORAGE     =           1.5086
       CONSTANT HEAD     =           0.0000         CONSTANT HEAD     =           0.0000
     HEAD DEP BOUNDS     =    10545666.0000       HEAD DEP BOUNDS     =           0.2858
      STREAM LEAKAGE     =   437719200.0000        STREAM LEAKAGE     =          13.5620
        UZF RECHARGE     =       73223.9531          UZF RECHARGE     =           0.0000
               GW ET     =           0.0000                 GW ET     =           0.0000
     SURFACE LEAKAGE     =           0.0000       SURFACE LEAKAGE     =           0.0000
           AG WELLS      =           0.0000             AG WELLS      =           0.0000

                TOTAL IN =   701288896.0000                  TOTAL IN =          15.3564

          OUT:                                     OUT:
          ----                                     ----
             STORAGE     =   142352720.0000               STORAGE     =           8.2188
       CONSTANT HEAD     =           0.0000         CONSTANT HEAD     =           0.0000
     HEAD DEP BOUNDS     =    10725684.0000       HEAD DEP BOUNDS     =           0.2895
      STREAM LEAKAGE     =   399836736.0000        STREAM LEAKAGE     =           6.8480
        UZF RECHARGE     =           0.0000          UZF RECHARGE     =           0.0000
               GW ET     =     1494030.3750                 GW ET     =           0.0000
     SURFACE LEAKAGE     =           0.0000       SURFACE LEAKAGE     =           0.0000
           AG WELLS      =   146882592.0000             AG WELLS      =           0.0000

               TOTAL OUT =   701291776.0000                 TOTAL OUT =          15.3564

                IN - OUT =       -2880.0000                  IN - OUT =       2.6703E-05

     PERCENT DISCREPANCY =          -0.00         PERCENT DISCREPANCY =           0.00






         TIME SUMMARY AT END OF TIME STEP   30 IN STRESS PERIOD   15
                    SECONDS     MINUTES      HOURS       DAYS        YEARS
                    -----------------------------------------------------------
   TIME STEP LENGTH  87667.      1461.1      24.352      1.0147     2.77799E-03
 STRESS PERIOD TIME 2.63000E+06  43833.      730.56      30.440     8.33397E-02
         TOTAL TIME 3.69063E+07 6.15106E+05  10252.      427.16      1.1695    
1
1
                            STRESS PERIOD NO.   16, LENGTH =   2630000.    
                            -----------------------------------------------

                              NUMBER OF TIME STEPS =    30

                               MULTIPLIER FOR DELT =     1.000

                            INITIAL TIME STEP SIZE =   87666.66    

 REUSING NON-PARAMETER GHB CELLS FROM LAST STRESS PERIOD

      2 GHB CELLS

 REUSING STREAM SEGMENT DATA FROM LAST STRESS PERIOD



            AREAL INFILTRATION RATE
 READING ON UNIT   19 WITH FORMAT: (10F4.0)            

            1           2           3           4           5           6           7           8           9          10
 ........................................................................................................................
   1   1.2000E-09   0.000       0.000       0.000       0.000       0.000       0.000       0.000       0.000       0.000    
   2   2.1000E-09  2.0000E-09  8.0000E-10  8.5000E-09   0.000       0.000       0.000       0.000       0.000       0.000    
   3   5.0000E-10  1.1000E-09  8.8000E-09  5.5000E-09   0.000       0.000       0.000       0.000       0.000       0.000    
   4   8.5000E-09  1.1000E-09  1.1000E-09  1.1000E-09  2.0000E-09   0.000       0.000       0.000       0.000       0.000    
   5   8.5000E-09  1.1000E-09  1.1000E-09  1.1000E-09  1.1000E-09   0.000       0.000       0.000       0.000       0.000    
   6   8.5000E-09  5.2000E-09  2.1000E-09  1.1000E-09  1.5000E-09   0.000       0.000       0.000       0.000       0.000    
   7   8.5000E-09  5.2000E-09  2.1000E-09  1.2000E-09  2.0000E-09   0.000       0.000       0.000       0.000       0.000    
   8   5.0000E-10  5.2000E-09  2.1000E-09  1.2000E-09  5.0000E-09   0.000       0.000       0.000       0.000       0.000    
   9   5.0000E-10  5.2000E-09  2.1000E-09  1.2000E-09  5.0000E-09   0.000       0.000       0.000       0.000       0.000    
  10   5.0000E-10  5.2000E-09  2.1000E-09  1.2000E-09  5.8000E-09   0.000       0.000       0.000       0.000       0.000    
  11   1.0000E-10  1.1000E-09  1.1000E-09  1.2000E-09  5.0000E-09   0.000       0.000       0.000       0.000       0.000    
  12   1.1000E-09  1.1000E-09  1.1000E-09  1.1000E-09  2.0000E-09   0.000       0.000       0.000       0.000       0.000    
  13   1.1000E-09  2.2000E-09  2.2000E-09  2.1000E-09  1.0000E-09   0.000       0.000       0.000       0.000       0.000    
  14   2.0000E-10  5.5000E-09  5.5000E-09  5.2000E-09  1.0000E-09   0.000       0.000       0.000       0.000       0.000    
  15    0.000      8.8000E-09  8.8000E-09   0.000       0.000       0.000       0.000       0.000       0.000       0.000    

                  ET RATE =  5.000000E-10

 USING ET EXTINCTION DEPTH FROM PREVIOUS STRESS PERIOD. CURRENT PERIOD IS:      16

 USING EXTINCTION WATER CONTENT FROM PREVIOUS STRESS PERIOD. CURRENT PERIOD IS:      16

 USING AIR ENTRY PRESSURE FROM PREVIOUS STRESS PERIOD. CURRENT PERIOD IS:      16

 USING ROOT PRESSURE HEAD FROM PREVIOUS STRESS PERIOD. CURRENT PERIOD IS:      16

 USING ROOT ACTIVITY FROM PREVIOUS STRESS PERIOD. CURRENT PERIOD IS:      16

 PROCESSING AG STRESS PERIOD DATA

 READING AG STRESS PERIOD DATA

 READING IRRIGATION SEGMENT

 READING IRRIGATION WELL

 READING SUPPLEMENTAL WELL

 END PROCESSING AG STRESS PERIOD DATA OPTIONS
 
 SOLVING FOR HEAD 
                                                   Max.-Head-Change                         Max.-Flux-Residual
  Residual-Control   Outer-Iter.   Inner-Iter.     Column Row Layer    Maximum-Head-Change  Column Row Layer    Maximum-Flux-Residual          L2-NORM 
          0                 1           2             4   13     1       0.1974953216E-01       4   13    1         0.1139547376E+01      0.2195920511E+01
          0                 2           2             4   13     1      -0.1888246092E-02       4   13    1        -0.1127295484E+00      0.1910014098E+00
          0                 3           1             4   13     1       0.1256222045E-03       4   13    1         0.7773374712E-02      0.1370157439E-01
          0                 4           1             3   13     1      -0.1139661221E-04       3   13    1        -0.6739817663E-03      0.8464706081E-03

    ------------------------------------------------
       NWT REQUIRED            4 OUTER ITERATIONS 
       AND A TOTAL OF          6 INNER ITERATIONS.
    ------------------------------------------------

 NO OUTPUT CONTROL FOR STRESS PERIOD   16   TIME STEP    1
 
 SOLVING FOR HEAD 
                                                   Max.-Head-Change                         Max.-Flux-Residual
  Residual-Control   Outer-Iter.   Inner-Iter.     Column Row Layer    Maximum-Head-Change  Column Row Layer    Maximum-Flux-Residual          L2-NORM 
          0                 1           2             2   13     1       0.1816705517E-01       2   13    1         0.1028227408E+01      0.2059204728E+01
          0                 2           2             3   13     1       0.2224716228E-02       3   13    1         0.1308071488E+00      0.2198985767E+00
          0                 3           2             3   13     1       0.2809664804E-03       3   13    1         0.1616548678E-01      0.2031336343E-01
          0                 4           1             3   13     1       0.3609861105E-04       3   13    1         0.2097596535E-02      0.2145627935E-02

    ------------------------------------------------
       NWT REQUIRED            4 OUTER ITERATIONS 
       AND A TOTAL OF          7 INNER ITERATIONS.
    ------------------------------------------------

 NO OUTPUT CONTROL FOR STRESS PERIOD   16   TIME STEP    2
 
 SOLVING FOR HEAD 
                                                   Max.-Head-Change                         Max.-Flux-Residual
  Residual-Control   Outer-Iter.   Inner-Iter.     Column Row Layer    Maximum-Head-Change  Column Row Layer    Maximum-Flux-Residual          L2-NORM 
          0                 1           2             2   13     1       0.1677073032E-01       2   13    1         0.9493644593E+00      0.1909211834E+01
          0                 2           2             3   13     1       0.1975306029E-02       3   13    1         0.1162031360E+00      0.2027146855E+00
          0                 3           2             3   13     1       0.2501929825E-03       3   13    1         0.1439109321E-01      0.1845703105E-01
          0                 4           1             3   13     1       0.3224082853E-04       3   13    1         0.1873693557E-02      0.1921806045E-02

    ------------------------------------------------
       NWT REQUIRED            4 OUTER ITERATIONS 
       AND A TOTAL OF          7 INNER ITERATIONS.
    ------------------------------------------------

 NO OUTPUT CONTROL FOR STRESS PERIOD   16   TIME STEP    3
 
 SOLVING FOR HEAD 
                                                   Max.-Head-Change                         Max.-Flux-Residual
  Residual-Control   Outer-Iter.   Inner-Iter.     Column Row Layer    Maximum-Head-Change  Column Row Layer    Maximum-Flux-Residual          L2-NORM 
          0                 1           2             2   13     1       0.1547624769E-01       2   13    1         0.8762161977E+00      0.1776053722E+01
          0                 2           2             3   13     1       0.1758200168E-02       3   13    1         0.1034836231E+00      0.1875713429E+00
          0                 3           2             3   13     1       0.2230675605E-03       3   13    1         0.1282763200E-01      0.1682217242E-01
          0                 4           1             3   13     1       0.2883190718E-04       3   13    1         0.1675600192E-02      0.1723795176E-02

    ------------------------------------------------
       NWT REQUIRED            4 OUTER ITERATIONS 
       AND A TOTAL OF          7 INNER ITERATIONS.
    ------------------------------------------------

 NO OUTPUT CONTROL FOR STRESS PERIOD   16   TIME STEP    4
 
 SOLVING FOR HEAD 
                                                   Max.-Head-Change                         Max.-Flux-Residual
  Residual-Control   Outer-Iter.   Inner-Iter.     Column Row Layer    Maximum-Head-Change  Column Row Layer    Maximum-Flux-Residual          L2-NORM 
          0                 1           2             2   13     1       0.1427715865E-01       2   13    1         0.8084249010E+00      0.1658030342E+01
          0                 2           2             3   13     1       0.1596908784E-02       3   13    1         0.9238780369E-01      0.1803018362E+00
          0                 3           2             3   13     1       0.2111969254E-03       3   13    1         0.1208645108E-01      0.1880060190E-01
          0                 4           1             3   13     1       0.2790865853E-04       3   13    1         0.1605662256E-02      0.2168342229E-02

    ------------------------------------------------
       NWT REQUIRED            4 OUTER ITERATIONS 
       AND A TOTAL OF          7 INNER ITERATIONS.
    ------------------------------------------------

 NO OUTPUT CONTROL FOR STRESS PERIOD   16   TIME STEP    5
 
 SOLVING FOR HEAD 
                                                   Max.-Head-Change                         Max.-Flux-Residual
  Residual-Control   Outer-Iter.   Inner-Iter.     Column Row Layer    Maximum-Head-Change  Column Row Layer    Maximum-Flux-Residual          L2-NORM 
          0                 1           2             2   13     1       0.1317309765E-01       2   13    1         0.7459680820E+00      0.1563281225E+01
          0                 2           2             4   13     1       0.1556594012E-02       4   13    1         0.9025366259E-01      0.1731498475E+00
          0                 3           2             4   13     1       0.1973732466E-03       4   13    1         0.1138155306E-01      0.1802347721E-01
          0                 4           1             3   13     1       0.2531602984E-04       3   13    1         0.1454988816E-02      0.2076640549E-02

    ------------------------------------------------
       NWT REQUIRED            4 OUTER ITERATIONS 
       AND A TOTAL OF          7 INNER ITERATIONS.
    ------------------------------------------------

 NO OUTPUT CONTROL FOR STRESS PERIOD   16   TIME STEP    6
 
 SOLVING FOR HEAD 
                                                   Max.-Head-Change                         Max.-Flux-Residual
  Residual-Control   Outer-Iter.   Inner-Iter.     Column Row Layer    Maximum-Head-Change  Column Row Layer    Maximum-Flux-Residual          L2-NORM 
          0                 1           2             2   13     1       0.1215260021E-01       2   13    1         0.6882203125E+00      0.1462087610E+01
          0                 2           2             4   13     1       0.1370613069E-02       4   13    1         0.7950686315E-01      0.1605149617E+00
          0                 3           2             4   13     1       0.1743934637E-03       4   13    1         0.1005195091E-01      0.1633888150E-01
          0                 4           1             3   13     1       0.2264556559E-04       3   13    1         0.1301697008E-02      0.1855201608E-02

    ------------------------------------------------
       NWT REQUIRED            4 OUTER ITERATIONS 
       AND A TOTAL OF          7 INNER ITERATIONS.
    ------------------------------------------------

 NO OUTPUT CONTROL FOR STRESS PERIOD   16   TIME STEP    7
 
 SOLVING FOR HEAD 
                                                   Max.-Head-Change                         Max.-Flux-Residual
  Residual-Control   Outer-Iter.   Inner-Iter.     Column Row Layer    Maximum-Head-Change  Column Row Layer    Maximum-Flux-Residual          L2-NORM 
          0                 1           2             2   13     1       0.1120828280E-01       2   13    1         0.6347691089E+00      0.1373998194E+01
          0                 2           2             4   13     1       0.1205734715E-02       4   13    1         0.6997956851E-01      0.1493827219E+00
          0                 3           2             4   13     1       0.1534745564E-03       4   13    1         0.8841775531E-02      0.1482346970E-01
          0                 4           1             3   13     1       0.2018551951E-04       3   13    1         0.1160573804E-02      0.1645994287E-02

    ------------------------------------------------
       NWT REQUIRED            4 OUTER ITERATIONS 
       AND A TOTAL OF          7 INNER ITERATIONS.
    ------------------------------------------------

 NO OUTPUT CONTROL FOR STRESS PERIOD   16   TIME STEP    8
 
 SOLVING FOR HEAD 
                                                   Max.-Head-Change                         Max.-Flux-Residual
  Residual-Control   Outer-Iter.   Inner-Iter.     Column Row Layer    Maximum-Head-Change  Column Row Layer    Maximum-Flux-Residual          L2-NORM 
          0                 1           2             2   13     1       0.1033498829E-01       2   13    1         0.5853259386E+00      0.1297246314E+01
          0                 2           2             4   13     1       0.1064024428E-02       4   13    1         0.6179028570E-01      0.1398461849E+00
          0                 3           2             3   13     1       0.1364129084E-03       4   13    1         0.7823490891E-02      0.1355246641E-01
          0                 4           1             3   13     1       0.1817173944E-04       3   13    1         0.1044973364E-02      0.1478749118E-02

    ------------------------------------------------
       NWT REQUIRED            4 OUTER ITERATIONS 
       AND A TOTAL OF          7 INNER ITERATIONS.
    ------------------------------------------------

 NO OUTPUT CONTROL FOR STRESS PERIOD   16   TIME STEP    9
 
 SOLVING FOR HEAD 
                                                   Max.-Head-Change                         Max.-Flux-Residual
  Residual-Control   Outer-Iter.   Inner-Iter.     Column Row Layer    Maximum-Head-Change  Column Row Layer    Maximum-Flux-Residual          L2-NORM 
          0                 1           2             2   13     1       0.9527847871E-02       2   13    1         0.5396182507E+00      0.1230310754E+01
          0                 2           2             4   13     1       0.9378018654E-03       4   13    1         0.5449565447E-01      0.1314436933E+00
          0                 3           2             3   13     1       0.1218049395E-03       3   13    1         0.6958906813E-02      0.1239717038E-01
          0                 4           1             3   13     1       0.1621695869E-04       3   13    1         0.9327466314E-03      0.1318182689E-02

    ------------------------------------------------
       NWT REQUIRED            4 OUTER ITERATIONS 
       AND A TOTAL OF          7 INNER ITERATIONS.
    ------------------------------------------------

 NO OUTPUT CONTROL FOR STRESS PERIOD   16   TIME STEP   10
 
 SOLVING FOR HEAD 
                                                   Max.-Head-Change                         Max.-Flux-Residual
  Residual-Control   Outer-Iter.   Inner-Iter.     Column Row Layer    Maximum-Head-Change  Column Row Layer    Maximum-Flux-Residual          L2-NORM 
          0                 1           2             2   13     1       0.8782272279E-02       2   13    1         0.4973884956E+00      0.1171876379E+01
          0                 2           2             4   13     1       0.8272916792E-03       4   13    1         0.4810858700E-01      0.1241470303E+00
          0                 3           1             3   13     1       0.1087939779E-03       3   13    1         0.6214546177E-02      0.1140575413E-01
          0                 4           1             3   13     1       0.1446501312E-04       3   13    1         0.8320950283E-03      0.1178483917E-02

    ------------------------------------------------
       NWT REQUIRED            4 OUTER ITERATIONS 
       AND A TOTAL OF          6 INNER ITERATIONS.
    ------------------------------------------------

 NO OUTPUT CONTROL FOR STRESS PERIOD   16   TIME STEP   11
 
 SOLVING FOR HEAD 
                                                   Max.-Head-Change                         Max.-Flux-Residual
  Residual-Control   Outer-Iter.   Inner-Iter.     Column Row Layer    Maximum-Head-Change  Column Row Layer    Maximum-Flux-Residual          L2-NORM 
          0                 1           2             2   13     1       0.8093889369E-02       2   13    1         0.4583911612E+00      0.1120793706E+01
          0                 2           2             2   13     1      -0.7475088494E-03       2   13    1        -0.4411908791E-01      0.1178856698E+00
          0                 3           1             3   13     1       0.9765848591E-04       3   13    1         0.5577836038E-02      0.1055818651E-01

    ------------------------------------------------
       NWT REQUIRED            3 OUTER ITERATIONS 
       AND A TOTAL OF          5 INNER ITERATIONS.
    ------------------------------------------------

 NO OUTPUT CONTROL FOR STRESS PERIOD   16   TIME STEP   12
 
 SOLVING FOR HEAD 
                                                   Max.-Head-Change                         Max.-Flux-Residual
  Residual-Control   Outer-Iter.   Inner-Iter.     Column Row Layer    Maximum-Head-Change  Column Row Layer    Maximum-Flux-Residual          L2-NORM 
          0                 1           2             2   13     1       0.7458246866E-02       2   13    1         0.4223751413E+00      0.1076067733E+01
          0                 2           2             2   13     1      -0.6896809864E-03       2   13    1        -0.4068832911E-01      0.1123963181E+00
          0                 3           1             3   13     1       0.8740765178E-04       3   13    1         0.4991565048E-02      0.9807234210E-02

    ------------------------------------------------
       NWT REQUIRED            3 OUTER ITERATIONS 
       AND A TOTAL OF          5 INNER ITERATIONS.
    ------------------------------------------------

 NO OUTPUT CONTROL FOR STRESS PERIOD   16   TIME STEP   13
 
 SOLVING FOR HEAD 
                                                   Max.-Head-Change                         Max.-Flux-Residual
  Residual-Control   Outer-Iter.   Inner-Iter.     Column Row Layer    Maximum-Head-Change  Column Row Layer    Maximum-Flux-Residual          L2-NORM 
          0                 1           2             2   13     1       0.6871976815E-02       2   13    1         0.3891521081E+00      0.1036809889E+01
          0                 2           2             2   13     1      -0.6362473558E-03       2   13    1        -0.3751946516E-01      0.1076090069E+00
          0                 3           1             3   13     1       0.7818732318E-04       3   13    1         0.4464134227E-02      0.9156201597E-02

    ------------------------------------------------
       NWT REQUIRED            3 OUTER ITERATIONS 
       AND A TOTAL OF          5 INNER ITERATIONS.
    ------------------------------------------------

 NO OUTPUT CONTROL FOR STRESS PERIOD   16   TIME STEP   14
 
 SOLVING FOR HEAD 
                                                   Max.-Head-Change                         Max.-Flux-Residual
  Residual-Control   Outer-Iter.   Inner-Iter.     Column Row Layer    Maximum-Head-Change  Column Row Layer    Maximum-Flux-Residual          L2-NORM 
          0                 1           2             1   13     1       0.6334468718E-02       2   13    1         0.3585089832E+00      0.1002244836E+01
          0                 2           2             1   13     1      -0.5976888249E-03       2   13    1        -0.3458912419E-01      0.1034384151E+00
          0                 3           1             3   13     1       0.6996560443E-04       3   13    1         0.3993780658E-02      0.8596068184E-02

    ------------------------------------------------
       NWT REQUIRED            3 OUTER ITERATIONS 
       AND A TOTAL OF          5 INNER ITERATIONS.
    ------------------------------------------------

 NO OUTPUT CONTROL FOR STRESS PERIOD   16   TIME STEP   15
 
 SOLVING FOR HEAD 
                                                   Max.-Head-Change                         Max.-Flux-Residual
  Residual-Control   Outer-Iter.   Inner-Iter.     Column Row Layer    Maximum-Head-Change  Column Row Layer    Maximum-Flux-Residual          L2-NORM 
          0                 1           2             1   13     1       0.6033332908E-02       2   13    1         0.3302657038E+00      0.9717408818E+00
          0                 2           2             2    2     1      -0.5731012379E-03       1   13    1        -0.3201667939E-01      0.9981689521E-01
          0                 3           1             3   13     1       0.6265723582E-04       3   13    1         0.3575514822E-02      0.8121491094E-02

    ------------------------------------------------
       NWT REQUIRED            3 OUTER ITERATIONS 
       AND A TOTAL OF          5 INNER ITERATIONS.
    ------------------------------------------------

 NO OUTPUT CONTROL FOR STRESS PERIOD   16   TIME STEP   16
 
 SOLVING FOR HEAD 
                                                   Max.-Head-Change                         Max.-Flux-Residual
  Residual-Control   Outer-Iter.   Inner-Iter.     Column Row Layer    Maximum-Head-Change  Column Row Layer    Maximum-Flux-Residual          L2-NORM 
          0                 1           2             2    2     1       0.5852647958E-02       1   13    1         0.3138863891E+00      0.9447435793E+00
          0                 2           2             2    2     1      -0.5693047002E-03       2    2    1        -0.3056806829E-01      0.9663392979E-01
          0                 3           1             3   13     1       0.5613428140E-04       3   13    1         0.3202359276E-02      0.7705606198E-02

    ------------------------------------------------
       NWT REQUIRED            3 OUTER ITERATIONS 
       AND A TOTAL OF          5 INNER ITERATIONS.
    ------------------------------------------------

 NO OUTPUT CONTROL FOR STRESS PERIOD   16   TIME STEP   17
 
 SOLVING FOR HEAD 
                                                   Max.-Head-Change                         Max.-Flux-Residual
  Residual-Control   Outer-Iter.   Inner-Iter.     Column Row Layer    Maximum-Head-Change  Column Row Layer    Maximum-Flux-Residual          L2-NORM 
          0                 1           2             2    2     1       0.5814072744E-02       2    2    1         0.3036513882E+00      0.9207609619E+00
          0                 2           2             2    2     1      -0.5655523552E-03       2    2    1        -0.3036524605E-01      0.9384702776E-01
          0                 3           1             3   13     1       0.5057849027E-04       3   13    1         0.2884723700E-02      0.7354417954E-02

    ------------------------------------------------
       NWT REQUIRED            3 OUTER ITERATIONS 
       AND A TOTAL OF          5 INNER ITERATIONS.
    ------------------------------------------------

 NO OUTPUT CONTROL FOR STRESS PERIOD   16   TIME STEP   18
 
 SOLVING FOR HEAD 
                                                   Max.-Head-Change                         Max.-Flux-Residual
  Residual-Control   Outer-Iter.   Inner-Iter.     Column Row Layer    Maximum-Head-Change  Column Row Layer    Maximum-Flux-Residual          L2-NORM 
          0                 1           2             2    2     1       0.5776119099E-02       2    2    1         0.3016558761E+00      0.8993802288E+00
          0                 2           2             2    2     1      -0.5618604725E-03       2    2    1        -0.3016569301E-01      0.9138626987E-01
          0                 3           1             3   13     1       0.4542789928E-04       3   13    1         0.2590125856E-02      0.7046300873E-02

    ------------------------------------------------
       NWT REQUIRED            3 OUTER ITERATIONS 
       AND A TOTAL OF          5 INNER ITERATIONS.
    ------------------------------------------------

 NO OUTPUT CONTROL FOR STRESS PERIOD   16   TIME STEP   19
 
 SOLVING FOR HEAD 
                                                   Max.-Head-Change                         Max.-Flux-Residual
  Residual-Control   Outer-Iter.   Inner-Iter.     Column Row Layer    Maximum-Head-Change  Column Row Layer    Maximum-Flux-Residual          L2-NORM 
          0                 1           2             2    2     1       0.5738603072E-02       2    2    1         0.2996834553E+00      0.8802675501E+00
          0                 2           2             2    2     1      -0.5582111587E-03       2    2    1        -0.2996844912E-01      0.8920835605E-01
          0                 3           1             3   13     1       0.4080507548E-04       3   13    1         0.2325652180E-02      0.6782094953E-02

    ------------------------------------------------
       NWT REQUIRED            3 OUTER ITERATIONS 
       AND A TOTAL OF          5 INNER ITERATIONS.
    ------------------------------------------------

 NO OUTPUT CONTROL FOR STRESS PERIOD   16   TIME STEP   20
 
 SOLVING FOR HEAD 
                                                   Max.-Head-Change                         Max.-Flux-Residual
  Residual-Control   Outer-Iter.   Inner-Iter.     Column Row Layer    Maximum-Head-Change  Column Row Layer    Maximum-Flux-Residual          L2-NORM 
          0                 1           2             2    2     1       0.5701517464E-02       2    2    1         0.2977337242E+00      0.8630973724E+00
          0                 2           2             2    2     1      -0.5546037136E-03       2    2    1        -0.2977347424E-01      0.8727416080E-01
          0                 3           1             2    2     1       0.3776644199E-04       3   13    1         0.2091325938E-02      0.6552231667E-02

    ------------------------------------------------
       NWT REQUIRED            3 OUTER ITERATIONS 
       AND A TOTAL OF          5 INNER ITERATIONS.
    ------------------------------------------------

 NO OUTPUT CONTROL FOR STRESS PERIOD   16   TIME STEP   21
 
 SOLVING FOR HEAD 
                                                   Max.-Head-Change                         Max.-Flux-Residual
  Residual-Control   Outer-Iter.   Inner-Iter.     Column Row Layer    Maximum-Head-Change  Column Row Layer    Maximum-Flux-Residual          L2-NORM 
          0                 1           2             2    2     1       0.5665030022E-02       2    2    1         0.2958154469E+00      0.8476360667E+00
          0                 2           2             2    2     1      -0.5510544543E-03       2    2    1        -0.2958164479E-01      0.8555219953E-01
          0                 3           1             2    2     1       0.3752475077E-04       2    2    1         0.2070715075E-02      0.6355093403E-02

    ------------------------------------------------
       NWT REQUIRED            3 OUTER ITERATIONS 
       AND A TOTAL OF          5 INNER ITERATIONS.
    ------------------------------------------------

 NO OUTPUT CONTROL FOR STRESS PERIOD   16   TIME STEP   22
 
 SOLVING FOR HEAD 
                                                   Max.-Head-Change                         Max.-Flux-Residual
  Residual-Control   Outer-Iter.   Inner-Iter.     Column Row Layer    Maximum-Head-Change  Column Row Layer    Maximum-Flux-Residual          L2-NORM 
          0                 1           2             2    2     1       0.5628956801E-02       2    2    1         0.2939190464E+00      0.8336423669E+00
          0                 2           2             2    2     1      -0.5475454878E-03       2    2    1        -0.2939200304E-01      0.8401078934E-01
          0                 3           1             2    2     1       0.3728580307E-04       2    2    1         0.2057440157E-02      0.6183065281E-02

    ------------------------------------------------
       NWT REQUIRED            3 OUTER ITERATIONS 
       AND A TOTAL OF          5 INNER ITERATIONS.
    ------------------------------------------------

 NO OUTPUT CONTROL FOR STRESS PERIOD   16   TIME STEP   23
 
 SOLVING FOR HEAD 
                                                   Max.-Head-Change                         Max.-Flux-Residual
  Residual-Control   Outer-Iter.   Inner-Iter.     Column Row Layer    Maximum-Head-Change  Column Row Layer    Maximum-Flux-Residual          L2-NORM 
          0                 1           2             2    2     1       0.5593378777E-02       2    2    1         0.2920486915E+00      0.8209323456E+00
          0                 2           2             2    2     1      -0.5440846916E-03       2    2    1        -0.2920496592E-01      0.8262392211E-01
          0                 3           1             2    2     1       0.3705013613E-04       2    2    1         0.2044347586E-02      0.6034271664E-02

    ------------------------------------------------
       NWT REQUIRED            3 OUTER ITERATIONS 
       AND A TOTAL OF          5 INNER ITERATIONS.
    ------------------------------------------------

 NO OUTPUT CONTROL FOR STRESS PERIOD   16   TIME STEP   24
 
 SOLVING FOR HEAD 
                                                   Max.-Head-Change                         Max.-Flux-Residual
  Residual-Control   Outer-Iter.   Inner-Iter.     Column Row Layer    Maximum-Head-Change  Column Row Layer    Maximum-Flux-Residual          L2-NORM 
          0                 1           2             2    2     1       0.5558288169E-02       2    2    1         0.2902040121E+00      0.8093447925E+00
          0                 2           2             2    2     1      -0.5406713081E-03       2    2    1        -0.2902049636E-01      0.8137192769E-01
          0                 3           1             2    2     1       0.3681769766E-04       2    2    1         0.2031434723E-02      0.5903497247E-02

    ------------------------------------------------
       NWT REQUIRED            3 OUTER ITERATIONS 
       AND A TOTAL OF          5 INNER ITERATIONS.
    ------------------------------------------------

 NO OUTPUT CONTROL FOR STRESS PERIOD   16   TIME STEP   25
 
 SOLVING FOR HEAD 
                                                   Max.-Head-Change                         Max.-Flux-Residual
  Residual-Control   Outer-Iter.   Inner-Iter.     Column Row Layer    Maximum-Head-Change  Column Row Layer    Maximum-Flux-Residual          L2-NORM 
          0                 1           2             2    2     1       0.5523589929E-02       2    2    1         0.2883800352E+00      0.7987428701E+00
          0                 2           2             2    2     1      -0.5372960912E-03       2    2    1        -0.2883809707E-01      0.8023695045E-01
          0                 3           1             2    2     1       0.3658785832E-04       2    2    1         0.2018666787E-02      0.5789293481E-02

    ------------------------------------------------
       NWT REQUIRED            3 OUTER ITERATIONS 
       AND A TOTAL OF          5 INNER ITERATIONS.
    ------------------------------------------------

 NO OUTPUT CONTROL FOR STRESS PERIOD   16   TIME STEP   26
 
 SOLVING FOR HEAD 
                                                   Max.-Head-Change                         Max.-Flux-Residual
  Residual-Control   Outer-Iter.   Inner-Iter.     Column Row Layer    Maximum-Head-Change  Column Row Layer    Maximum-Flux-Residual          L2-NORM 
          0                 1           2             2    2     1       0.5489364658E-02       2    2    1         0.2865809714E+00      0.7890131260E+00
          0                 2           2             2    2     1      -0.5339668822E-03       2    2    1        -0.2865818915E-01      0.7920200181E-01
          0                 3           1             2    2     1       0.3636115160E-04       2    2    1         0.2006073231E-02      0.5688099874E-02

    ------------------------------------------------
       NWT REQUIRED            3 OUTER ITERATIONS 
       AND A TOTAL OF          5 INNER ITERATIONS.
    ------------------------------------------------

 NO OUTPUT CONTROL FOR STRESS PERIOD   16   TIME STEP   27
 
 SOLVING FOR HEAD 
                                                   Max.-Head-Change                         Max.-Flux-Residual
  Residual-Control   Outer-Iter.   Inner-Iter.     Column Row Layer    Maximum-Head-Change  Column Row Layer    Maximum-Flux-Residual          L2-NORM 
          0                 1           2             2    2     1       0.5455605360E-02       2    2    1         0.2848064305E+00      0.7800272831E+00
          0                 2           2             2    2     1      -0.5306830004E-03       2    2    1        -0.2848073355E-01      0.7825363356E-01
          0                 3           1             2    2     1       0.3613753204E-04       2    2    1         0.1993651367E-02      0.5598331603E-02

    ------------------------------------------------
       NWT REQUIRED            3 OUTER ITERATIONS 
       AND A TOTAL OF          5 INNER ITERATIONS.
    ------------------------------------------------

 NO OUTPUT CONTROL FOR STRESS PERIOD   16   TIME STEP   28
 
 SOLVING FOR HEAD 
                                                   Max.-Head-Change                         Max.-Flux-Residual
  Residual-Control   Outer-Iter.   Inner-Iter.     Column Row Layer    Maximum-Head-Change  Column Row Layer    Maximum-Flux-Residual          L2-NORM 
          0                 1           2             2    2     1       0.5422304762E-02       2    2    1         0.2830560498E+00      0.7717270526E+00
          0                 2           2             2    2     1      -0.5274437378E-03       2    2    1        -0.2830569401E-01      0.7738294528E-01
          0                 3           1             2    2     1       0.3591694995E-04       2    2    1         0.1981398594E-02      0.5517697487E-02

    ------------------------------------------------
       NWT REQUIRED            3 OUTER ITERATIONS 
       AND A TOTAL OF          5 INNER ITERATIONS.
    ------------------------------------------------

 NO OUTPUT CONTROL FOR STRESS PERIOD   16   TIME STEP   29
 
 SOLVING FOR HEAD 
                                                   Max.-Head-Change                         Max.-Flux-Residual
  Residual-Control   Outer-Iter.   Inner-Iter.     Column Row Layer    Maximum-Head-Change  Column Row Layer    Maximum-Flux-Residual          L2-NORM 
          0                 1           2             2    2     1       0.4684744849E-02       2    2    1         0.2444880033E+00      0.7076960206E+00
          0                 2           2             2    2     1      -0.4556989163E-03       2    2    1        -0.2444886593E-01      0.7158090941E-01
          0                 3           1             2    2     1       0.3103139733E-04       4   13    1        -0.1727499453E-02      0.5384764478E-02

    ------------------------------------------------
       NWT REQUIRED            3 OUTER ITERATIONS 
       AND A TOTAL OF          5 INNER ITERATIONS.
    ------------------------------------------------

 NO OUTPUT CONTROL FOR STRESS PERIOD   16   TIME STEP   30



 STREAM LISTING     PERIOD     16   STEP       30

 LAYER ROW COL. STREAM  RCH.  FLOW INTO     FLOW TO   FLOW OUT OF   OVRLND.     DIRECT     STREAM       STREAM     STREAM     STREAM   STREAMBED  STREAMBED
                SEG.NO.  NO.  STRM. RCH.    AQUIFER    STRM. RCH.    RUNOFF     PRECIP       ET          HEAD       DEPTH      WIDTH   CONDCTNC.   GRADIENT

   1    1    1     1     1    6.6341E+01  3.9373E-01   6.5947E+01  0.000E+00  0.000E+00  0.000E+00  1.09465E+03  1.601E+00  1.902E+01  8.558E-02  1.534E+00
   1    2    2     1     2    6.5947E+01  6.0983E-01   6.5338E+01  0.000E+00  0.000E+00  0.000E+00  1.08965E+03  1.595E+00  1.896E+01  1.327E-01  1.532E+00
   1    3    3     1     3    6.5338E+01  5.2015E-01   6.4817E+01  0.000E+00  0.000E+00  0.000E+00  1.08401E+03  1.588E+00  1.889E+01  1.134E-01  1.529E+00
   1    3    4     1     4    6.4817E+01  4.7905E-01   6.4338E+01  0.000E+00  0.000E+00  0.000E+00  1.07899E+03  1.582E+00  1.884E+01  1.045E-01  1.527E+00
   1    4    5     2     1    6.2338E+01  3.9665E-01   6.1942E+01  0.000E+00  0.000E+00  0.000E+00  1.07402E+03  2.085E+00  1.200E+01  7.800E-02  1.695E+00
   1    5    6     2     2    6.1942E+01  3.0469E-01   6.1637E+01  0.000E+00  0.000E+00  0.000E+00  1.06859E+03  2.078E+00  1.200E+01  6.000E-02  1.693E+00
   1    6    6     2     3    6.1637E+01  3.0432E-01   6.1333E+01  0.000E+00  0.000E+00  0.000E+00  1.06386E+03  2.072E+00  1.200E+01  6.000E-02  1.691E+00
   1    7    6     2     4    6.1333E+01  3.0396E-01   6.1029E+01  0.000E+00  0.000E+00  0.000E+00  1.05914E+03  2.066E+00  1.200E+01  6.000E-02  1.689E+00
   1    8    6     2     5    6.1029E+01  3.0359E-01   6.0725E+01  0.000E+00  0.000E+00  0.000E+00  1.05442E+03  2.060E+00  1.200E+01  6.000E-02  1.687E+00
   1    3    5     3     1    2.0000E+00  2.8252E-01   1.7175E+00  0.000E+00  0.000E+00  0.000E+00  1.07555E+03  1.909E+00  9.636E+00  7.227E-02  1.955E+00
   1    3    6     3     2    1.7175E+00  2.4905E-01   1.4684E+00  0.000E+00  0.000E+00  0.000E+00  1.07264E+03  1.727E+00  8.909E+00  6.682E-02  1.864E+00
   1    3    7     3     3    1.4684E+00  1.9718E-01   1.2712E+00  0.000E+00  0.000E+00  0.000E+00  1.06987E+03  1.555E+00  8.218E+00  5.547E-02  1.777E+00
   1    4    8     3     4    1.2712E+00  2.2567E-01   1.0456E+00  0.000E+00  0.000E+00  0.000E+00  1.06682E+03  1.364E+00  7.455E+00  6.709E-02  1.682E+00
   1    5    8     3     5    1.0456E+00  1.5790E-01   8.8768E-01  0.000E+00  0.000E+00  0.000E+00  1.06362E+03  1.164E+00  6.655E+00  4.991E-02  1.582E+00
   1    6    8     3     6    8.8768E-01  5.5980E-02   8.3170E-01  0.000E+00  0.000E+00  0.000E+00  1.06158E+03  1.036E+00  6.145E+00  1.844E-02  1.518E+00
   1    5   10     4     1    1.0000E+01  9.0919E-02   9.9091E+00  0.000E+00  0.000E+00  0.000E+00  1.07836E+03  6.368E-01  1.000E+01  2.500E-02  1.212E+00
   1    5    9     4     2    9.9091E+00  1.8158E-01   9.7275E+00  0.000E+00  0.000E+00  0.000E+00  1.07154E+03  6.315E-01  1.000E+01  5.000E-02  1.211E+00
   1    6    8     4     3    9.7275E+00  1.2689E-01   9.6006E+00  0.000E+00  0.000E+00  0.000E+00  1.06381E+03  6.256E-01  1.000E+01  3.500E-02  1.209E+00
   1    6    8     5     1    1.0432E+01  2.2686E-01   1.0205E+01  0.000E+00  0.000E+00  0.000E+00  1.05868E+03  6.790E-01  1.542E+01  6.166E-02  1.226E+00
   1    7    7     5     2    1.0205E+01  2.7894E-01   9.9265E+00  0.000E+00  0.000E+00  0.000E+00  1.05417E+03  6.732E-01  1.519E+01  7.594E-02  1.224E+00
   1    8    7     5     3    9.9265E+00  1.9221E-01   9.7343E+00  0.000E+00  0.000E+00  0.000E+00  1.04992E+03  6.676E-01  1.497E+01  5.241E-02  1.223E+00
   1    8    6     5     4    9.7343E+00  1.3577E-01   9.5985E+00  0.000E+00  0.000E+00  0.000E+00  1.04691E+03  6.637E-01  1.482E+01  3.706E-02  1.221E+00
   1    9    6     6     1    7.0324E+01  3.1608E-01   7.0008E+01  0.000E+00  0.000E+00  0.000E+00  1.04500E+03  2.268E+00  1.200E+01  6.000E-02  1.756E+00
   1   10    7     6     2    7.0008E+01  3.1571E-01   6.9692E+01  0.000E+00  0.000E+00  0.000E+00  1.04044E+03  2.262E+00  1.200E+01  6.000E-02  1.754E+00
   1   11    7     6     3    6.9692E+01  3.1534E-01   6.9377E+01  0.000E+00  0.000E+00  0.000E+00  1.03589E+03  2.256E+00  1.200E+01  6.000E-02  1.752E+00
   1   12    7     6     4    6.9377E+01  3.1498E-01   6.9062E+01  0.000E+00  0.000E+00  0.000E+00  1.03134E+03  2.250E+00  1.200E+01  6.000E-02  1.750E+00
   1   13    7     6     5    6.9062E+01  2.4914E-02   6.9037E+01  0.000E+00  0.000E+00  0.000E+00  1.02816E+03  2.246E+00  1.200E+01  2.400E-02  3.460E-01
   1   14    9     7     1    1.5000E+02  1.3361E+00   1.4866E+02  0.000E+00  0.000E+00  0.000E+00  1.03987E+03  2.288E+00  5.529E+01  5.593E-01  7.963E-01
   1   13    8     7     2    1.4866E+02  1.8266E+00   1.4684E+02  0.000E+00  0.000E+00  0.000E+00  1.03478E+03  2.279E+00  5.526E+01  6.148E-01  9.904E-01
   1   13    7     7     3    1.4684E+02  1.4367E+00   1.4540E+02  0.000E+00  0.000E+00  0.000E+00  1.02969E+03  2.271E+00  5.522E+01  5.585E-01  8.575E-01
   1   13    6     8     1    2.1444E+02  1.0667E+00   2.1337E+02  0.000E+00  0.000E+00  0.000E+00  1.02509E+03  3.218E+00  4.666E+01  4.755E-01  7.478E-01
   1   13    5     8     2    2.1337E+02  2.4840E-01   2.1312E+02  0.000E+00  0.000E+00  0.000E+00  1.01884E+03  3.214E+00  4.660E+01  4.749E-01  1.743E-01
   1   13    4     8     3    2.1312E+02 -2.4413E+00   2.1556E+02  0.000E+00  0.000E+00  0.000E+00  1.01260E+03  3.220E+00  4.669E+01  4.758E+00 -1.710E-01
   1   13    3     8     4    2.1556E+02 -3.7030E+00   2.1927E+02  0.000E+00  0.000E+00  0.000E+00  1.00636E+03  3.238E+00  4.694E+01  4.784E+00 -2.580E-01
   1   13    2     8     5    2.1927E+02 -2.5673E+00   2.2183E+02  0.000E+00  0.000E+00  0.000E+00  1.00013E+03  3.255E+00  4.720E+01  4.810E+00 -1.779E-01
   1   13    1     8     6    2.2183E+02 -1.9017E+00   2.2374E+02  0.000E+00  0.000E+00  0.000E+00  9.95142E+02  3.267E+00  4.738E+01  2.897E+00 -2.188E-01
   1    8    6     9     1    0.0000E+00  0.0000E+00   0.0000E+00  0.000E+00  0.000E+00  0.000E+00  1.07875E+03  0.000E+00  4.000E+00  0.000E+00  1.000E+00
   1    8    5     9     2    0.0000E+00  0.0000E+00   0.0000E+00  0.000E+00  0.000E+00  0.000E+00  1.07825E+03  0.000E+00  4.000E+00  0.000E+00  1.000E+00





UNSATURATED ZONE PACKAGE VOLUMETRIC BUDGET FOR  TIME STEP    30 STRESS PERIOD   16
  ------------------------------------------------------------------------------



     CUMULATIVE VOLUMES      L**3       RATES FOR THIS TIME STEP      L**3/T
     ------------------                 ------------------------

           IN:                                      IN:
           ---                                      ---
        INFILTRATION =   657623405.5134          INFILTRATION =           4.4075

          OUT:                                     OUT:
          ----                                     ----
              UZF ET =   503903599.4779                UZF ET =           0.7250
        UZF RECHARGE =      627361.4960          UZF RECHARGE =           0.0327

            IN - OUT =   153092444.5396              IN - OUT =           3.6498

          STORAGE:                                 STORAGE:
          --------                                 --------
      STORAGE CHANGE =   153092976.0805        STORAGE CHANGE =           3.6498

 PERCENT DISCREPANCY IS DIFFERENCE BETWEEN IN-OUT MINUS CHANGE IN STORAGE
 DIVIDED BY THE AVERAGE OF IN AND OUT TIMES 100

 PERCENT DISCREPANCY =          -0.00     PERCENT DISCREPANCY =           0.00






1
  VOLUMETRIC BUDGET FOR AGRICULTURAL FIELDS AT  END OF TIME STEP   30, STRESS PERIOD  16
  ------------------------------------------------------------------------------

     CUMULATIVE VOLUMES      L**3       RATES FOR THIS TIME STEP      L**3/T
     ------------------                 ------------------------

           IN:                                      IN:
           ---                                      ---
               AG WELLS  =   146882592.0000                 AG WELLS  =           0.0000
      DIVERSION SEGMENTS =   336900352.0000        DIVERSION SEGMENTS =           0.0000
           GW IRRIGATION =           0.0000             GW IRRIGATION =           0.0000
           SW IRRIGATION =           0.0000             SW IRRIGATION =           0.0000
        SYSTEM LOSSES GW =           0.0000          SYSTEM LOSSES GW =           0.0000
        SYSTEM LOSSES SW =           0.0000          SYSTEM LOSSES SW =           0.0000

                TOTAL IN =   483782944.0000                  TOTAL IN =           0.0000

          OUT:                                     OUT:
          ----                                     ----
               AG WELLS  =           0.0000                 AG WELLS  =           0.0000
      DIVERSION SEGMENTS =           0.0000        DIVERSION SEGMENTS =           0.0000
           GW IRRIGATION =   146882592.0000             GW IRRIGATION =           0.0000
           SW IRRIGATION =   336907040.0000             SW IRRIGATION =           0.0000
        SYSTEM LOSSES GW =           0.0000          SYSTEM LOSSES GW =           0.0000
        SYSTEM LOSSES SW =           0.0000          SYSTEM LOSSES SW =           0.0000

               TOTAL OUT =   483789632.0000                 TOTAL OUT =           0.0000

                IN - OUT =       -6688.0000                  IN - OUT =           0.0000

     PERCENT DISCREPANCY =          -0.00         PERCENT DISCREPANCY =           0.00



1
  VOLUMETRIC BUDGET FOR ENTIRE MODEL AT END OF TIME STEP   30, STRESS PERIOD  16
  ------------------------------------------------------------------------------

     CUMULATIVE VOLUMES      L**3       RATES FOR THIS TIME STEP      L**3/T
     ------------------                 ------------------------

           IN:                                      IN:
           ---                                      ---
             STORAGE     =   255983888.0000               STORAGE     =           1.2314
       CONSTANT HEAD     =           0.0000         CONSTANT HEAD     =           0.0000
     HEAD DEP BOUNDS     =    11297252.0000       HEAD DEP BOUNDS     =           0.2858
      STREAM LEAKAGE     =   473232352.0000        STREAM LEAKAGE     =          13.2190
        UZF RECHARGE     =      627361.5000          UZF RECHARGE     =       3.2695E-02
               GW ET     =           0.0000                 GW ET     =           0.0000
     SURFACE LEAKAGE     =           0.0000       SURFACE LEAKAGE     =           0.0000
           AG WELLS      =           0.0000             AG WELLS      =           0.0000

                TOTAL IN =   741140864.0000                  TOTAL IN =          14.7689

          OUT:                                     OUT:
          ----                                     ----
             STORAGE     =   157213232.0000               STORAGE     =           3.8604
       CONSTANT HEAD     =           0.0000         CONSTANT HEAD     =           0.0000
     HEAD DEP BOUNDS     =    11498546.0000       HEAD DEP BOUNDS     =           0.2964
      STREAM LEAKAGE     =   424055776.0000        STREAM LEAKAGE     =          10.6133
        UZF RECHARGE     =           0.0000          UZF RECHARGE     =           0.0000
               GW ET     =     1494030.3750                 GW ET     =       2.5279E-12
     SURFACE LEAKAGE     =           0.0000       SURFACE LEAKAGE     =           0.0000
           AG WELLS      =   146882592.0000             AG WELLS      =           0.0000

               TOTAL OUT =   741144192.0000                 TOTAL OUT =          14.7701

                IN - OUT =       -3328.0000                  IN - OUT =      -1.2350E-03

     PERCENT DISCREPANCY =          -0.00         PERCENT DISCREPANCY =          -0.01






         TIME SUMMARY AT END OF TIME STEP   30 IN STRESS PERIOD   16
                    SECONDS     MINUTES      HOURS       DAYS        YEARS
                    -----------------------------------------------------------
   TIME STEP LENGTH  87667.      1461.1      24.352      1.0147     2.77799E-03
 STRESS PERIOD TIME 2.63000E+06  43833.      730.56      30.440     8.33397E-02
         TOTAL TIME 3.95364E+07 6.58940E+05  10982.      457.60      1.2528    
1
1
                            STRESS PERIOD NO.   17, LENGTH =   2630000.    
                            -----------------------------------------------

                              NUMBER OF TIME STEPS =    30

                               MULTIPLIER FOR DELT =     1.000

                            INITIAL TIME STEP SIZE =   87666.66    

 REUSING NON-PARAMETER GHB CELLS FROM LAST STRESS PERIOD

      2 GHB CELLS

 REUSING STREAM SEGMENT DATA FROM LAST STRESS PERIOD



            AREAL INFILTRATION RATE
 READING ON UNIT   19 WITH FORMAT: (10F4.0)            

            1           2           3           4           5           6           7           8           9          10
 ........................................................................................................................
   1   1.2000E-09   0.000       0.000       0.000       0.000       0.000       0.000       0.000       0.000       0.000    
   2   2.1000E-09  2.0000E-09  8.0000E-10  8.5000E-09   0.000       0.000       0.000       0.000       0.000       0.000    
   3   5.0000E-10  1.1000E-09  8.8000E-09  5.5000E-09   0.000       0.000       0.000       0.000       0.000       0.000    
   4   8.5000E-09  1.1000E-09  1.1000E-09  1.1000E-09  2.0000E-09   0.000       0.000       0.000       0.000       0.000    
   5   8.5000E-09  1.1000E-09  1.1000E-09  1.1000E-09  1.1000E-09   0.000       0.000       0.000       0.000       0.000    
   6   8.5000E-09  5.2000E-09  2.1000E-09  1.1000E-09  1.5000E-09   0.000       0.000       0.000       0.000       0.000    
   7   8.5000E-09  5.2000E-09  2.1000E-09  1.2000E-09  2.0000E-09   0.000       0.000       0.000       0.000       0.000    
   8   5.0000E-10  5.2000E-09  2.1000E-09  1.2000E-09  5.0000E-09   0.000       0.000       0.000       0.000       0.000    
   9   5.0000E-10  5.2000E-09  2.1000E-09  1.2000E-09  5.0000E-09   0.000       0.000       0.000       0.000       0.000    
  10   5.0000E-10  5.2000E-09  2.1000E-09  1.2000E-09  5.8000E-09   0.000       0.000       0.000       0.000       0.000    
  11   1.0000E-10  1.1000E-09  1.1000E-09  1.2000E-09  5.0000E-09   0.000       0.000       0.000       0.000       0.000    
  12   1.1000E-09  1.1000E-09  1.1000E-09  1.1000E-09  2.0000E-09   0.000       0.000       0.000       0.000       0.000    
  13   1.1000E-09  2.2000E-09  2.2000E-09  2.1000E-09  1.0000E-09   0.000       0.000       0.000       0.000       0.000    
  14   2.0000E-10  5.5000E-09  5.5000E-09  5.2000E-09  1.0000E-09   0.000       0.000       0.000       0.000       0.000    
  15    0.000      8.8000E-09  8.8000E-09   0.000       0.000       0.000       0.000       0.000       0.000       0.000    

                  ET RATE =  2.500000E-08

 USING ET EXTINCTION DEPTH FROM PREVIOUS STRESS PERIOD. CURRENT PERIOD IS:      17

 USING EXTINCTION WATER CONTENT FROM PREVIOUS STRESS PERIOD. CURRENT PERIOD IS:      17

 USING AIR ENTRY PRESSURE FROM PREVIOUS STRESS PERIOD. CURRENT PERIOD IS:      17

 USING ROOT PRESSURE HEAD FROM PREVIOUS STRESS PERIOD. CURRENT PERIOD IS:      17

 USING ROOT ACTIVITY FROM PREVIOUS STRESS PERIOD. CURRENT PERIOD IS:      17

 PROCESSING AG STRESS PERIOD DATA

 READING AG STRESS PERIOD DATA

 READING IRRIGATION SEGMENT

 READING IRRIGATION WELL

 READING SUPPLEMENTAL WELL

 END PROCESSING AG STRESS PERIOD DATA OPTIONS
 
 SOLVING FOR HEAD 
                                                   Max.-Head-Change                         Max.-Flux-Residual
  Residual-Control   Outer-Iter.   Inner-Iter.     Column Row Layer    Maximum-Head-Change  Column Row Layer    Maximum-Flux-Residual          L2-NORM 
          0                 1           2             4   13     1      -0.5306696793E-02       4   13    1        -0.3077697811E+00      0.7843730543E+00
          0                 2           2             2   13     1       0.3880764108E-03       2   13    1         0.2293291685E-01      0.6930330363E-01
          0                 3           1             3   13     1       0.2757181917E-04       3   13    1         0.1638408529E-02      0.5042075672E-02

    ------------------------------------------------
       NWT REQUIRED            3 OUTER ITERATIONS 
       AND A TOTAL OF          5 INNER ITERATIONS.
    ------------------------------------------------

 NO OUTPUT CONTROL FOR STRESS PERIOD   17   TIME STEP    1
 
 SOLVING FOR HEAD 
                                                   Max.-Head-Change                         Max.-Flux-Residual
  Residual-Control   Outer-Iter.   Inner-Iter.     Column Row Layer    Maximum-Head-Change  Column Row Layer    Maximum-Flux-Residual          L2-NORM 
          0                 1           2             4   13     1      -0.5388288915E-02       4   13    1        -0.3122167283E+00      0.7828430390E+00
          0                 2           2             4   13     1       0.5174071144E-03       4   13    1         0.3082768197E-01      0.7872582957E-01
          0                 3           1             4   13     1      -0.3707510327E-04       4   13    1        -0.2270414083E-02      0.4993241404E-02

    ------------------------------------------------
       NWT REQUIRED            3 OUTER ITERATIONS 
       AND A TOTAL OF          5 INNER ITERATIONS.
    ------------------------------------------------

 NO OUTPUT CONTROL FOR STRESS PERIOD   17   TIME STEP    2
 
 SOLVING FOR HEAD 
                                                   Max.-Head-Change                         Max.-Flux-Residual
  Residual-Control   Outer-Iter.   Inner-Iter.     Column Row Layer    Maximum-Head-Change  Column Row Layer    Maximum-Flux-Residual          L2-NORM 
          0                 1           2             4   13     1      -0.4842173965E-02       4   13    1        -0.2805727440E+00      0.7541417031E+00
          0                 2           2             4    7     1      -0.7756404293E-03       4    7    1        -0.4167476706E-01      0.1141928362E+00
          0                 3           2             4    7     1       0.1602033808E-03       4    7    1         0.8845795415E-02      0.2290196170E-01
          0                 4           1             4    7     1       0.7096545091E-04       5    6    1         0.3928465509E-02      0.1032794897E-01

    ------------------------------------------------
       NWT REQUIRED            4 OUTER ITERATIONS 
       AND A TOTAL OF          7 INNER ITERATIONS.
    ------------------------------------------------

 NO OUTPUT CONTROL FOR STRESS PERIOD   17   TIME STEP    3
 
 SOLVING FOR HEAD 
                                                   Max.-Head-Change                         Max.-Flux-Residual
  Residual-Control   Outer-Iter.   Inner-Iter.     Column Row Layer    Maximum-Head-Change  Column Row Layer    Maximum-Flux-Residual          L2-NORM 
          0                 1           2             4   13     1      -0.4324891520E-02       4   13    1        -0.2505681231E+00      0.7283916256E+00
          0                 2           2             4    7     1      -0.5886126731E-02       4    7    1        -0.3161423063E+00      0.7711353215E+00
          0                 3           2             4    7     1       0.5805205695E-02       4    7    1         0.3204971677E+00      0.7873426324E+00
          0                 4           2             4    7     1      -0.2309951233E-03       4    7    1        -0.1310838663E-01      0.3269815819E-01
          0                 5           1             4   13     1      -0.4237180399E-05       4   13    1        -0.2581874633E-03      0.5844467421E-03

    ------------------------------------------------
       NWT REQUIRED            5 OUTER ITERATIONS 
       AND A TOTAL OF          9 INNER ITERATIONS.
    ------------------------------------------------

 NO OUTPUT CONTROL FOR STRESS PERIOD   17   TIME STEP    4
 
 SOLVING FOR HEAD 
                                                   Max.-Head-Change                         Max.-Flux-Residual
  Residual-Control   Outer-Iter.   Inner-Iter.     Column Row Layer    Maximum-Head-Change  Column Row Layer    Maximum-Flux-Residual          L2-NORM 
          0                 1           2             3   13     1      -0.5889138079E-02       3   13    1        -0.3432243949E+00      0.7791602426E+00
          0                 2           2             4    7     1      -0.5762440275E-02       4    7    1        -0.3094991108E+00      0.7547896760E+00
          0                 3           2             4    7     1       0.5639372302E-02       4    7    1         0.3113417781E+00      0.7649500587E+00
          0                 4           2             4    7     1      -0.2180473926E-03       4    7    1        -0.1237363847E-01      0.3082872659E-01
          0                 5           1             4    7     1       0.7822233682E-05       4   13    1        -0.4722088333E-03      0.1368958390E-02

    ------------------------------------------------
       NWT REQUIRED            5 OUTER ITERATIONS 
       AND A TOTAL OF          9 INNER ITERATIONS.
    ------------------------------------------------

 NO OUTPUT CONTROL FOR STRESS PERIOD   17   TIME STEP    5
 
 SOLVING FOR HEAD 
                                                   Max.-Head-Change                         Max.-Flux-Residual
  Residual-Control   Outer-Iter.   Inner-Iter.     Column Row Layer    Maximum-Head-Change  Column Row Layer    Maximum-Flux-Residual          L2-NORM 
          0                 1           2             3   13     1      -0.5143520201E-02       3   13    1        -0.2996333016E+00      0.7451652652E+00
          0                 2           2             4    7     1      -0.5788996454E-02       4    7    1        -0.3109249529E+00      0.7583986927E+00
          0                 3           2             4    7     1       0.5692384690E-02       4    7    1         0.3142685060E+00      0.7720947576E+00
          0                 4           2             4    7     1      -0.2239674972E-03       4    7    1        -0.1270958817E-01      0.3169149107E-01
          0                 5           1             4   13     1      -0.5542207233E-05       4   13    1        -0.3435840135E-03      0.8912510279E-03

    ------------------------------------------------
       NWT REQUIRED            5 OUTER ITERATIONS 
       AND A TOTAL OF          9 INNER ITERATIONS.
    ------------------------------------------------

 NO OUTPUT CONTROL FOR STRESS PERIOD   17   TIME STEP    6
 
 SOLVING FOR HEAD 
                                                   Max.-Head-Change                         Max.-Flux-Residual
  Residual-Control   Outer-Iter.   Inner-Iter.     Column Row Layer    Maximum-Head-Change  Column Row Layer    Maximum-Flux-Residual          L2-NORM 
          0                 1           2             3   13     1      -0.4476726875E-02       3   13    1        -0.2608354369E+00      0.7099505813E+00
          0                 2           2             4    7     1      -0.5784817359E-02       4    7    1        -0.3107001300E+00      0.7580209240E+00
          0                 3           2             4    7     1       0.5684235931E-02       4    7    1         0.3138186281E+00      0.7709635794E+00
          0                 4           2             4    7     1      -0.2227021327E-03       4    7    1        -0.1263778227E-01      0.3149730557E-01
          0                 5           1             4   13     1      -0.6033574671E-05       4   13    1        -0.3740164448E-03      0.1007814901E-02

    ------------------------------------------------
       NWT REQUIRED            5 OUTER ITERATIONS 
       AND A TOTAL OF          9 INNER ITERATIONS.
    ------------------------------------------------

 NO OUTPUT CONTROL FOR STRESS PERIOD   17   TIME STEP    7
 
 SOLVING FOR HEAD 
                                                   Max.-Head-Change                         Max.-Flux-Residual
  Residual-Control   Outer-Iter.   Inner-Iter.     Column Row Layer    Maximum-Head-Change  Column Row Layer    Maximum-Flux-Residual          L2-NORM 
          0                 1           2             3   13     1      -0.3880124621E-02       3   13    1        -0.2261228318E+00      0.6810774816E+00
          0                 2           2             4    7     1      -0.5792873860E-02       4    7    1        -0.3111323658E+00      0.7592847061E+00
          0                 3           2             4    7     1       0.5694099806E-02       4    7    1         0.3143631931E+00      0.7722749848E+00
          0                 4           2             4    7     1      -0.2230014956E-03       4    7    1        -0.1265477013E-01      0.3153248517E-01
          0                 5           1             4   13     1      -0.6048058602E-05       4   13    1        -0.3749018688E-03      0.1018164087E-02

    ------------------------------------------------
       NWT REQUIRED            5 OUTER ITERATIONS 
       AND A TOTAL OF          9 INNER ITERATIONS.
    ------------------------------------------------

 NO OUTPUT CONTROL FOR STRESS PERIOD   17   TIME STEP    8
 
 SOLVING FOR HEAD 
                                                   Max.-Head-Change                         Max.-Flux-Residual
  Residual-Control   Outer-Iter.   Inner-Iter.     Column Row Layer    Maximum-Head-Change  Column Row Layer    Maximum-Flux-Residual          L2-NORM 
          0                 1           2             1    1     1       0.3806834576E-02       1    1    1         0.1976121051E+00      0.6575611014E+00
          0                 2           2             4    7     1      -0.5798325580E-02       4    7    1        -0.3114248286E+00      0.7602162292E+00
          0                 3           2             4    7     1       0.5701173608E-02       4    7    1         0.3147537309E+00      0.7732107779E+00
          0                 4           2             4    7     1      -0.2231877391E-03       4    7    1        -0.1266533911E-01      0.3155188991E-01
          0                 5           1             4   13     1      -0.6068088261E-05       4   13    1        -0.3761339085E-03      0.1028969009E-02

    ------------------------------------------------
       NWT REQUIRED            5 OUTER ITERATIONS 
       AND A TOTAL OF          9 INNER ITERATIONS.
    ------------------------------------------------

 NO OUTPUT CONTROL FOR STRESS PERIOD   17   TIME STEP    9
 
 SOLVING FOR HEAD 
                                                   Max.-Head-Change                         Max.-Flux-Residual
  Residual-Control   Outer-Iter.   Inner-Iter.     Column Row Layer    Maximum-Head-Change  Column Row Layer    Maximum-Flux-Residual          L2-NORM 
          0                 1           2             1    1     1       0.3803035082E-02       1    1    1         0.1974144251E+00      0.6385360168E+00
          0                 2           2             4    7     1      -0.5777262059E-02       4    7    1        -0.3102931565E+00      0.7576641092E+00
          0                 3           2             4    7     1       0.5672604783E-02       4    7    1         0.3131764903E+00      0.7693216876E+00
          0                 4           2             4    7     1      -0.2206553843E-03       4    7    1        -0.1252163476E-01      0.3117711661E-01
          0                 5           1             4    7     1       0.6811313455E-05       4   13    1        -0.4220351711E-03      0.1203465059E-02

    ------------------------------------------------
       NWT REQUIRED            5 OUTER ITERATIONS 
       AND A TOTAL OF          9 INNER ITERATIONS.
    ------------------------------------------------

 NO OUTPUT CONTROL FOR STRESS PERIOD   17   TIME STEP   10
 
 SOLVING FOR HEAD 
                                                   Max.-Head-Change                         Max.-Flux-Residual
  Residual-Control   Outer-Iter.   Inner-Iter.     Column Row Layer    Maximum-Head-Change  Column Row Layer    Maximum-Flux-Residual          L2-NORM 
          0                 1           2             1    1     1       0.3799248671E-02       1    1    1         0.1972174275E+00      0.6232317923E+00
          0                 2           2             4    7     1      -0.5799226750E-02       4    7    1        -0.3114724720E+00      0.7607812671E+00
          0                 3           2             4    7     1       0.5703185227E-02       4    7    1         0.3148647913E+00      0.7734463227E+00
          0                 4           2             4    7     1      -0.2228091288E-03       4    7    1        -0.1264385405E-01      0.3148451451E-01
          0                 5           1             4   13     1      -0.6275516527E-05       4   13    1        -0.3889713953E-03      0.1084664988E-02

    ------------------------------------------------
       NWT REQUIRED            5 OUTER ITERATIONS 
       AND A TOTAL OF          9 INNER ITERATIONS.
    ------------------------------------------------

 NO OUTPUT CONTROL FOR STRESS PERIOD   17   TIME STEP   11
 
 SOLVING FOR HEAD 
                                                   Max.-Head-Change                         Max.-Flux-Residual
  Residual-Control   Outer-Iter.   Inner-Iter.     Column Row Layer    Maximum-Head-Change  Column Row Layer    Maximum-Flux-Residual          L2-NORM 
          0                 1           2             1    1     1       0.3795497808E-02       1    1    1         0.1970222780E+00      0.6109594804E+00
          0                 2           2             4    7     1      -0.5785117934E-02       4    7    1        -0.3107143203E+00      0.7591424117E+00
          0                 3           2             4    7     1       0.5694977863E-02       4    7    1         0.3144116744E+00      0.7723127206E+00
          0                 4           2             4    7     1      -0.2232458067E-03       4    7    1        -0.1266863425E-01      0.3154832804E-01
          0                 5           1             4   13     1      -0.5845662484E-05       4   13    1        -0.3623462617E-03      0.9881920626E-03

    ------------------------------------------------
       NWT REQUIRED            5 OUTER ITERATIONS 
       AND A TOTAL OF          9 INNER ITERATIONS.
    ------------------------------------------------

 NO OUTPUT CONTROL FOR STRESS PERIOD   17   TIME STEP   12
 
 SOLVING FOR HEAD 
                                                   Max.-Head-Change                         Max.-Flux-Residual
  Residual-Control   Outer-Iter.   Inner-Iter.     Column Row Layer    Maximum-Head-Change  Column Row Layer    Maximum-Flux-Residual          L2-NORM 
          0                 1           2             1    1     1       0.3791737357E-02       1    1    1         0.1968266320E+00      0.6011493569E+00
          0                 2           2             4    7     1      -0.5772826312E-02       4    7    1        -0.3100538224E+00      0.7577348487E+00
          0                 3           2             4    7     1       0.5695576626E-02       4    7    1         0.3144447337E+00      0.7723696579E+00
          0                 4           2             4    7     1      -0.2251462610E-03       4    7    1        -0.1277648000E-01      0.3182915947E-01
          0                 5           1             4   13     1      -0.4779876353E-05       4   13    1        -0.2963499574E-03      0.7504240743E-03

    ------------------------------------------------
       NWT REQUIRED            5 OUTER ITERATIONS 
       AND A TOTAL OF          9 INNER ITERATIONS.
    ------------------------------------------------

 NO OUTPUT CONTROL FOR STRESS PERIOD   17   TIME STEP   13
 
 SOLVING FOR HEAD 
                                                   Max.-Head-Change                         Max.-Flux-Residual
  Residual-Control   Outer-Iter.   Inner-Iter.     Column Row Layer    Maximum-Head-Change  Column Row Layer    Maximum-Flux-Residual          L2-NORM 
          0                 1           2             1    1     1       0.3787989790E-02       1    1    1         0.1966316588E+00      0.5933280449E+00
          0                 2           2             4    7     1      -0.5766223114E-02       4    7    1        -0.3096988506E+00      0.7570674934E+00
          0                 3           2             4    7     1       0.5686603533E-02       4    7    1         0.3139493468E+00      0.7711431137E+00
          0                 4           2             4    7     1      -0.2241547999E-03       4    7    1        -0.1272021738E-01      0.3167991370E-01
          0                 5           1             4   13     1      -0.5122119749E-05       4   13    1        -0.3175546844E-03      0.8286732410E-03

    ------------------------------------------------
       NWT REQUIRED            5 OUTER ITERATIONS 
       AND A TOTAL OF          9 INNER ITERATIONS.
    ------------------------------------------------

 NO OUTPUT CONTROL FOR STRESS PERIOD   17   TIME STEP   14
 
 SOLVING FOR HEAD 
                                                   Max.-Head-Change                         Max.-Flux-Residual
  Residual-Control   Outer-Iter.   Inner-Iter.     Column Row Layer    Maximum-Head-Change  Column Row Layer    Maximum-Flux-Residual          L2-NORM 
          0                 1           2             1    1     1       0.3784277577E-02       1    1    1         0.1964385236E+00      0.5870752559E+00
          0                 2           2             4    7     1      -0.5760747728E-02       4    7    1        -0.3094043866E+00      0.7565427433E+00
          0                 3           2             4    7     1       0.5679442925E-02       4    7    1         0.3135540198E+00      0.7701635346E+00
          0                 4           2             4    7     1      -0.2233355922E-03       4    7    1        -0.1267372948E-01      0.3155654924E-01
          0                 5           1             4   13     1      -0.5391610019E-05       4   13    1        -0.3342227974E-03      0.8948900364E-03

    ------------------------------------------------
       NWT REQUIRED            5 OUTER ITERATIONS 
       AND A TOTAL OF          9 INNER ITERATIONS.
    ------------------------------------------------

 NO OUTPUT CONTROL FOR STRESS PERIOD   17   TIME STEP   15
 
 SOLVING FOR HEAD 
                                                   Max.-Head-Change                         Max.-Flux-Residual
  Residual-Control   Outer-Iter.   Inner-Iter.     Column Row Layer    Maximum-Head-Change  Column Row Layer    Maximum-Flux-Residual          L2-NORM 
          0                 1           2             1    1     1       0.3780555573E-02       1    1    1         0.1962448813E+00      0.5820546271E+00
          0                 2           2             4    7     1      -0.5786308947E-02       4    7    1        -0.3107769200E+00      0.7600976737E+00
          0                 3           2             4    7     1       0.5714785810E-02       4    7    1         0.3155052518E+00      0.7749421723E+00
          0                 4           2             4    7     1      -0.2258426941E-03       4    7    1        -0.1281600107E-01      0.3191788692E-01
          0                 5           1             4   13     1      -0.4746707541E-05       4   13    1        -0.2942707779E-03      0.7572409115E-03

    ------------------------------------------------
       NWT REQUIRED            5 OUTER ITERATIONS 
       AND A TOTAL OF          9 INNER ITERATIONS.
    ------------------------------------------------

 NO OUTPUT CONTROL FOR STRESS PERIOD   17   TIME STEP   16
 
 SOLVING FOR HEAD 
                                                   Max.-Head-Change                         Max.-Flux-Residual
  Residual-Control   Outer-Iter.   Inner-Iter.     Column Row Layer    Maximum-Head-Change  Column Row Layer    Maximum-Flux-Residual          L2-NORM 
          0                 1           2             1    1     1       0.3776846282E-02       1    1    1         0.1960519015E+00      0.5780173734E+00
          0                 2           2             4    7     1      -0.5791074954E-02       4    7    1        -0.3110325014E+00      0.7609046938E+00
          0                 3           2             4    7     1       0.5721808615E-02       4    7    1         0.3158929693E+00      0.7758862401E+00
          0                 4           2             4    7     1      -0.2261571507E-03       4    7    1        -0.1283384560E-01      0.3196041353E-01
          0                 5           1             4   13     1      -0.4757765034E-05       4   13    1        -0.2949794944E-03      0.7535382644E-03

    ------------------------------------------------
       NWT REQUIRED            5 OUTER ITERATIONS 
       AND A TOTAL OF          9 INNER ITERATIONS.
    ------------------------------------------------

 NO OUTPUT CONTROL FOR STRESS PERIOD   17   TIME STEP   17
 
 SOLVING FOR HEAD 
                                                   Max.-Head-Change                         Max.-Flux-Residual
  Residual-Control   Outer-Iter.   Inner-Iter.     Column Row Layer    Maximum-Head-Change  Column Row Layer    Maximum-Flux-Residual          L2-NORM 
          0                 1           2             1    1     1       0.3773149621E-02       1    1    1         0.1958595807E+00      0.5747351517E+00
          0                 2           2             4    7     1      -0.5797772421E-02       4    7    1        -0.3113919068E+00      0.7619517253E+00
          0                 3           2             4    7     1       0.5737490043E-02       4    7    1         0.3167587221E+00      0.7779999644E+00
          0                 4           2             4    7     1      -0.2278910041E-03       4    7    1        -0.1293223738E-01      0.3221285470E-01
          0                 5           1             4   13     1      -0.4118845775E-05       4   13    1        -0.2553921440E-03      0.6152274073E-03

    ------------------------------------------------
       NWT REQUIRED            5 OUTER ITERATIONS 
       AND A TOTAL OF          9 INNER ITERATIONS.
    ------------------------------------------------

 NO OUTPUT CONTROL FOR STRESS PERIOD   17   TIME STEP   18
 
 SOLVING FOR HEAD 
                                                   Max.-Head-Change                         Max.-Flux-Residual
  Residual-Control   Outer-Iter.   Inner-Iter.     Column Row Layer    Maximum-Head-Change  Column Row Layer    Maximum-Flux-Residual          L2-NORM 
          0                 1           2             1    1     1       0.3769465544E-02       1    1    1         0.1956679149E+00      0.5720398314E+00
          0                 2           2             4    7     1      -0.5771544901E-02       4    7    1        -0.3099829682E+00      0.7586492203E+00
          0                 3           2             4    7     1       0.5702458200E-02       4    7    1         0.3148246709E+00      0.7733044138E+00
          0                 4           2             4    7     1      -0.2249740384E-03       4    7    1        -0.1276670746E-01      0.3169669408E-01
          0                 5           1             2   13     1      -0.4600201815E-05       2   13    1        -0.2746040200E-03      0.7629506691E-03

    ------------------------------------------------
       NWT REQUIRED            5 OUTER ITERATIONS 
       AND A TOTAL OF          9 INNER ITERATIONS.
    ------------------------------------------------

 NO OUTPUT CONTROL FOR STRESS PERIOD   17   TIME STEP   19
 
 SOLVING FOR HEAD 
                                                   Max.-Head-Change                         Max.-Flux-Residual
  Residual-Control   Outer-Iter.   Inner-Iter.     Column Row Layer    Maximum-Head-Change  Column Row Layer    Maximum-Flux-Residual          L2-NORM 
          0                 1           2             1    1     1       0.3765793962E-02       1    1    1         0.1954769015E+00      0.5698000999E+00
          0                 2           2             4    7     1      -0.5787606104E-02       4    7    1        -0.3108452186E+00      0.7609156002E+00
          0                 3           2             4    7     1       0.5725114147E-02       4    7    1         0.3160754721E+00      0.7763699566E+00
          0                 4           2             4    7     1      -0.2265407660E-03       4    7    1        -0.1285561513E-01      0.3192181139E-01
          0                 5           1             2   13     1      -0.4227364375E-05       2   13    1        -0.2523347257E-03      0.6796020821E-03

    ------------------------------------------------
       NWT REQUIRED            5 OUTER ITERATIONS 
       AND A TOTAL OF          9 INNER ITERATIONS.
    ------------------------------------------------

 NO OUTPUT CONTROL FOR STRESS PERIOD   17   TIME STEP   20
 
 SOLVING FOR HEAD 
                                                   Max.-Head-Change                         Max.-Flux-Residual
  Residual-Control   Outer-Iter.   Inner-Iter.     Column Row Layer    Maximum-Head-Change  Column Row Layer    Maximum-Flux-Residual          L2-NORM 
          0                 1           2             1    1     1       0.3762134837E-02       1    1    1         0.1952865360E+00      0.5678930660E+00
          0                 2           2             4    7     1      -0.5791403166E-02       4    7    1        -0.3110488415E+00      0.7615537419E+00
          0                 3           2             4    7     1       0.5731179751E-02       4    7    1         0.3164103490E+00      0.7772375986E+00
          0                 4           2             4    7     1      -0.2268388428E-03       4    7    1        -0.1287253036E-01      0.3188606718E-01
          0                 5           1             3   13     1      -0.3988077402E-05       3   13    1        -0.2457633236E-03      0.6364178977E-03

    ------------------------------------------------
       NWT REQUIRED            5 OUTER ITERATIONS 
       AND A TOTAL OF          9 INNER ITERATIONS.
    ------------------------------------------------

 NO OUTPUT CONTROL FOR STRESS PERIOD   17   TIME STEP   21
 
 SOLVING FOR HEAD 
                                                   Max.-Head-Change                         Max.-Flux-Residual
  Residual-Control   Outer-Iter.   Inner-Iter.     Column Row Layer    Maximum-Head-Change  Column Row Layer    Maximum-Flux-Residual          L2-NORM 
          0                 1           2             1    1     1       0.3758488108E-02       1    1    1         0.1950968164E+00      0.5662428304E+00
          0                 2           2             4    7     1      -0.5794507724E-02       4    7    1        -0.3112151969E+00      0.7620955540E+00
          0                 3           2             4    7     1       0.5736433820E-02       4    7    1         0.3167004171E+00      0.7779910470E+00
          0                 4           2             4    7     1      -0.2270892219E-03       4    7    1        -0.1288673865E-01      0.3185122864E-01
          0                 5           1             4    7     1       0.3733490323E-05       4    7    1         0.2177535398E-03      0.5956311463E-03

    ------------------------------------------------
       NWT REQUIRED            5 OUTER ITERATIONS 
       AND A TOTAL OF          9 INNER ITERATIONS.
    ------------------------------------------------

 NO OUTPUT CONTROL FOR STRESS PERIOD   17   TIME STEP   22
 
 SOLVING FOR HEAD 
                                                   Max.-Head-Change                         Max.-Flux-Residual
  Residual-Control   Outer-Iter.   Inner-Iter.     Column Row Layer    Maximum-Head-Change  Column Row Layer    Maximum-Flux-Residual          L2-NORM 
          0                 1           2             1    1     1       0.3754853711E-02       1    1    1         0.1949077394E+00      0.5647904614E+00
          0                 2           2             4    7     1      -0.5797090292E-02       4    7    1        -0.3113536132E+00      0.7625569376E+00
          0                 3           2             4    7     1       0.5741027064E-02       4    7    1         0.3169540084E+00      0.7786275333E+00
          0                 4           2             4    7     1      -0.2273028027E-03       4    7    1        -0.1289885901E-01      0.3185712498E-01
          0                 5           1             4    7     1       0.3711597472E-05       4    7    1         0.2164766538E-03      0.5793178353E-03

    ------------------------------------------------
       NWT REQUIRED            5 OUTER ITERATIONS 
       AND A TOTAL OF          9 INNER ITERATIONS.
    ------------------------------------------------

 NO OUTPUT CONTROL FOR STRESS PERIOD   17   TIME STEP   23
 
 SOLVING FOR HEAD 
                                                   Max.-Head-Change                         Max.-Flux-Residual
  Residual-Control   Outer-Iter.   Inner-Iter.     Column Row Layer    Maximum-Head-Change  Column Row Layer    Maximum-Flux-Residual          L2-NORM 
          0                 1           2             1    1     1       0.3751231595E-02       1    1    1         0.1947193019E+00      0.5634670182E+00
          0                 2           2             4    7     1      -0.5799223605E-02       4    7    1        -0.3114679222E+00      0.7629504029E+00
          0                 3           2             4    7     1       0.5745083553E-02       4    7    1         0.3171779676E+00      0.7791767550E+00
          0                 4           2             4    7     1      -0.2274859221E-03       4    7    1        -0.1290925082E-01      0.3188261205E-01
          0                 5           1             4    7     1       0.3696141665E-05       4    7    1         0.2155751972E-03      0.5765843041E-03

    ------------------------------------------------
       NWT REQUIRED            5 OUTER ITERATIONS 
       AND A TOTAL OF          9 INNER ITERATIONS.
    ------------------------------------------------

 NO OUTPUT CONTROL FOR STRESS PERIOD   17   TIME STEP   24
 
 SOLVING FOR HEAD 
                                                   Max.-Head-Change                         Max.-Flux-Residual
  Residual-Control   Outer-Iter.   Inner-Iter.     Column Row Layer    Maximum-Head-Change  Column Row Layer    Maximum-Flux-Residual          L2-NORM 
          0                 1           2             1    1     1       0.3747621688E-02       1    1    1         0.1945315012E+00      0.5622524189E+00
          0                 2           2             4    7     1      -0.5800869371E-02       4    7    1        -0.3115559615E+00      0.7632771423E+00
          0                 3           2             4    7     1       0.5748575126E-02       4    7    1         0.3173707326E+00      0.7796499753E+00
          0                 4           2             4    7     1      -0.2276367600E-03       4    7    1        -0.1291781051E-01      0.3190378465E-01
          0                 5           1             4    7     1       0.3688462824E-05       4    7    1         0.2151273434E-03      0.5755392152E-03

    ------------------------------------------------
       NWT REQUIRED            5 OUTER ITERATIONS 
       AND A TOTAL OF          9 INNER ITERATIONS.
    ------------------------------------------------

 NO OUTPUT CONTROL FOR STRESS PERIOD   17   TIME STEP   25
 
 SOLVING FOR HEAD 
                                                   Max.-Head-Change                         Max.-Flux-Residual
  Residual-Control   Outer-Iter.   Inner-Iter.     Column Row Layer    Maximum-Head-Change  Column Row Layer    Maximum-Flux-Residual          L2-NORM 
          0                 1           2             1    1     1       0.3744023932E-02       1    1    1         0.1943443335E+00      0.5610965392E+00
          0                 2           2             4    7     1      -0.5800257470E-02       4    7    1        -0.3115227711E+00      0.7632981360E+00
          0                 3           2             4    7     1       0.5749858069E-02       4    7    1         0.3174415641E+00      0.7798236708E+00
          0                 4           2             4    7     1      -0.2277256224E-03       4    7    1        -0.1292285328E-01      0.3191626302E-01
          0                 5           1             4    7     1       0.3658900540E-05       4    7    1         0.2134031520E-03      0.5702424704E-03

    ------------------------------------------------
       NWT REQUIRED            5 OUTER ITERATIONS 
       AND A TOTAL OF          9 INNER ITERATIONS.
    ------------------------------------------------

 NO OUTPUT CONTROL FOR STRESS PERIOD   17   TIME STEP   26
 
 SOLVING FOR HEAD 
                                                   Max.-Head-Change                         Max.-Flux-Residual
  Residual-Control   Outer-Iter.   Inner-Iter.     Column Row Layer    Maximum-Head-Change  Column Row Layer    Maximum-Flux-Residual          L2-NORM 
          0                 1           2             1    1     1       0.3740438265E-02       1    1    1         0.1941577957E+00      0.5599940955E+00
          0                 2           2             4    7     1      -0.5800093263E-02       4    7    1        -0.3115136313E+00      0.7633721563E+00
          0                 3           2             4    7     1       0.5751527061E-02       4    7    1         0.3175337089E+00      0.7800501087E+00
          0                 4           2             4    7     1      -0.2278207436E-03       4    7    1        -0.1292825126E-01      0.3192984050E-01
          0                 5           1             4    7     1       0.3636227169E-05       4    7    1         0.2120807476E-03      0.5669670461E-03

    ------------------------------------------------
       NWT REQUIRED            5 OUTER ITERATIONS 
       AND A TOTAL OF          9 INNER ITERATIONS.
    ------------------------------------------------

 NO OUTPUT CONTROL FOR STRESS PERIOD   17   TIME STEP   27
 
 SOLVING FOR HEAD 
                                                   Max.-Head-Change                         Max.-Flux-Residual
  Residual-Control   Outer-Iter.   Inner-Iter.     Column Row Layer    Maximum-Head-Change  Column Row Layer    Maximum-Flux-Residual          L2-NORM 
          0                 1           2             1    1     1       0.3736864628E-02       1    1    1         0.1939718848E+00      0.5589091906E+00
          0                 2           2             4    7     1      -0.5786802789E-02       4    7    1        -0.3107995649E+00      0.7617076555E+00
          0                 3           2             4    7     1       0.5741449064E-02       4    7    1         0.3169773233E+00      0.7786808746E+00
          0                 4           2             4    7     1      -0.2277607421E-03       4    7    1        -0.1292484654E-01      0.3192331776E-01
          0                 5           1             4    7     1       0.3358879108E-05       4    7    1         0.1959046258E-03      0.5216718012E-03

    ------------------------------------------------
       NWT REQUIRED            5 OUTER ITERATIONS 
       AND A TOTAL OF          9 INNER ITERATIONS.
    ------------------------------------------------

 NO OUTPUT CONTROL FOR STRESS PERIOD   17   TIME STEP   28
 
 SOLVING FOR HEAD 
                                                   Max.-Head-Change                         Max.-Flux-Residual
  Residual-Control   Outer-Iter.   Inner-Iter.     Column Row Layer    Maximum-Head-Change  Column Row Layer    Maximum-Flux-Residual          L2-NORM 
          0                 1           2             1    1     1       0.3733302961E-02       1    1    1         0.1937865976E+00      0.5578424813E+00
          0                 2           2             4    7     1      -0.5798841811E-02       4    7    1        -0.3114458225E+00      0.7633816345E+00
          0                 3           2             4    7     1       0.5754412452E-02       4    7    1         0.3176930141E+00      0.7804414050E+00
          0                 4           2             4    7     1      -0.2280826050E-03       4    7    1        -0.1294311150E-01      0.3196696986E-01
          0                 5           1             4    7     1       0.3520228190E-05       4    7    1         0.2053151943E-03      0.5477614367E-03

    ------------------------------------------------
       NWT REQUIRED            5 OUTER ITERATIONS 
       AND A TOTAL OF          9 INNER ITERATIONS.
    ------------------------------------------------

 NO OUTPUT CONTROL FOR STRESS PERIOD   17   TIME STEP   29
 
 SOLVING FOR HEAD 
                                                   Max.-Head-Change                         Max.-Flux-Residual
  Residual-Control   Outer-Iter.   Inner-Iter.     Column Row Layer    Maximum-Head-Change  Column Row Layer    Maximum-Flux-Residual          L2-NORM 
          0                 1           2             1    1     1       0.3260189457E-02       1    1    1         0.1692109683E+00      0.5450756511E+00
          0                 2           2             4    7     1      -0.5806861541E-02       4    7    1        -0.3118764747E+00      0.7621458352E+00
          0                 3           2             4    7     1       0.5769808769E-02       4    7    1         0.3185430414E+00      0.7824913351E+00
          0                 4           2             4    7     1      -0.2295866398E-03       4    7    1        -0.1302846233E-01      0.3248312574E-01
          0                 5           1             4   13     1      -0.3995213456E-05       4   13    1        -0.2472891056E-03      0.5768567267E-03

    ------------------------------------------------
       NWT REQUIRED            5 OUTER ITERATIONS 
       AND A TOTAL OF          9 INNER ITERATIONS.
    ------------------------------------------------

 NO OUTPUT CONTROL FOR STRESS PERIOD   17   TIME STEP   30



 STREAM LISTING     PERIOD     17   STEP       30

 LAYER ROW COL. STREAM  RCH.  FLOW INTO     FLOW TO   FLOW OUT OF   OVRLND.     DIRECT     STREAM       STREAM     STREAM     STREAM   STREAMBED  STREAMBED
                SEG.NO.  NO.  STRM. RCH.    AQUIFER    STRM. RCH.    RUNOFF     PRECIP       ET          HEAD       DEPTH      WIDTH   CONDCTNC.   GRADIENT

   1    1    1     1     1    4.9431E+01  3.3436E-01   4.9097E+01  0.000E+00  0.000E+00  0.000E+00  1.09444E+03  1.395E+00  1.690E+01  7.607E-02  1.465E+00
   1    2    2     1     2    4.9097E+01  5.1808E-01   4.8579E+01  0.000E+00  0.000E+00  0.000E+00  1.08945E+03  1.393E+00  1.685E+01  1.179E-01  1.464E+00
   1    3    3     1     3    4.8579E+01  4.4210E-01   4.8137E+01  0.000E+00  0.000E+00  0.000E+00  1.08381E+03  1.390E+00  1.679E+01  1.007E-01  1.463E+00
   1    3    4     1     4    4.8137E+01  4.0732E-01   4.7729E+01  0.000E+00  0.000E+00  0.000E+00  1.07879E+03  1.387E+00  1.673E+01  9.285E-02  1.462E+00
   1    4    5     2     1    4.5729E+01  3.6899E-01   4.5360E+01  0.000E+00  0.000E+00  0.000E+00  1.07366E+03  1.731E+00  1.200E+01  7.800E-02  1.577E+00
   1    5    6     2     2    4.5360E+01  2.8339E-01   4.5077E+01  0.000E+00  0.000E+00  0.000E+00  1.06823E+03  1.723E+00  1.200E+01  6.000E-02  1.574E+00
   1    6    6     2     3    4.5077E+01  2.8300E-01   4.4794E+01  0.000E+00  0.000E+00  0.000E+00  1.06351E+03  1.717E+00  1.200E+01  6.000E-02  1.572E+00
   1    7    6     2     4    4.4794E+01  2.8261E-01   4.4511E+01  0.000E+00  0.000E+00  0.000E+00  1.05879E+03  1.710E+00  1.200E+01  6.000E-02  1.570E+00
   1    8    6     2     5    4.4511E+01  2.8222E-01   4.4229E+01  0.000E+00  0.000E+00  0.000E+00  1.05406E+03  1.704E+00  1.200E+01  6.000E-02  1.568E+00
   1    3    5     3     1    2.0000E+00  2.8252E-01   1.7175E+00  0.000E+00  0.000E+00  0.000E+00  1.07555E+03  1.909E+00  9.636E+00  7.227E-02  1.955E+00
   1    3    6     3     2    1.7175E+00  2.4905E-01   1.4684E+00  0.000E+00  0.000E+00  0.000E+00  1.07264E+03  1.727E+00  8.909E+00  6.682E-02  1.864E+00
   1    3    7     3     3    1.4684E+00  1.9718E-01   1.2712E+00  0.000E+00  0.000E+00  0.000E+00  1.06987E+03  1.555E+00  8.218E+00  5.547E-02  1.777E+00
   1    4    8     3     4    1.2712E+00  2.2567E-01   1.0456E+00  0.000E+00  0.000E+00  0.000E+00  1.06682E+03  1.364E+00  7.455E+00  6.709E-02  1.682E+00
   1    5    8     3     5    1.0456E+00  1.5790E-01   8.8768E-01  0.000E+00  0.000E+00  0.000E+00  1.06362E+03  1.164E+00  6.655E+00  4.991E-02  1.582E+00
   1    6    8     3     6    8.8768E-01  5.5980E-02   8.3170E-01  0.000E+00  0.000E+00  0.000E+00  1.06158E+03  1.036E+00  6.145E+00  1.844E-02  1.518E+00
   1    5   10     4     1    1.0000E+01  9.0919E-02   9.9091E+00  0.000E+00  0.000E+00  0.000E+00  1.07836E+03  6.368E-01  1.000E+01  2.500E-02  1.212E+00
   1    5    9     4     2    9.9091E+00  1.8158E-01   9.7275E+00  0.000E+00  0.000E+00  0.000E+00  1.07154E+03  6.315E-01  1.000E+01  5.000E-02  1.211E+00
   1    6    8     4     3    9.7275E+00  1.2689E-01   9.6006E+00  0.000E+00  0.000E+00  0.000E+00  1.06381E+03  6.256E-01  1.000E+01  3.500E-02  1.209E+00
   1    6    8     5     1    1.0432E+01  2.2686E-01   1.0205E+01  0.000E+00  0.000E+00  0.000E+00  1.05868E+03  6.790E-01  1.542E+01  6.166E-02  1.226E+00
   1    7    7     5     2    1.0205E+01  2.7894E-01   9.9265E+00  0.000E+00  0.000E+00  0.000E+00  1.05417E+03  6.732E-01  1.519E+01  7.594E-02  1.224E+00
   1    8    7     5     3    9.9265E+00  1.9221E-01   9.7343E+00  0.000E+00  0.000E+00  0.000E+00  1.04992E+03  6.676E-01  1.497E+01  5.241E-02  1.223E+00
   1    8    6     5     4    9.7343E+00  1.3577E-01   9.5985E+00  0.000E+00  0.000E+00  0.000E+00  1.04691E+03  6.637E-01  1.482E+01  3.706E-02  1.221E+00
   1    9    6     6     1    5.0267E+01  2.9121E-01   4.9976E+01  0.000E+00  0.000E+00  0.000E+00  1.04458E+03  1.853E+00  1.200E+01  6.000E-02  1.618E+00
   1   10    7     6     2    4.9976E+01  2.9082E-01   4.9685E+01  0.000E+00  0.000E+00  0.000E+00  1.04003E+03  1.847E+00  1.200E+01  6.000E-02  1.616E+00
   1   11    7     6     3    4.9685E+01  2.9043E-01   4.9395E+01  0.000E+00  0.000E+00  0.000E+00  1.03548E+03  1.841E+00  1.200E+01  6.000E-02  1.614E+00
   1   12    7     6     4    4.9395E+01  2.9004E-01   4.9105E+01  0.000E+00  0.000E+00  0.000E+00  1.03093E+03  1.834E+00  1.200E+01  6.000E-02  1.611E+00
   1   13    7     6     5    4.9105E+01  1.4710E-02   4.9090E+01  0.000E+00  0.000E+00  0.000E+00  1.02774E+03  1.831E+00  1.200E+01  2.400E-02  2.043E-01
   1   14    9     7     1    1.5000E+02  1.3364E+00   1.4866E+02  0.000E+00  0.000E+00  0.000E+00  1.03987E+03  2.288E+00  5.529E+01  5.593E-01  7.964E-01
   1   13    8     7     2    1.4866E+02  1.8256E+00   1.4684E+02  0.000E+00  0.000E+00  0.000E+00  1.03478E+03  2.279E+00  5.526E+01  6.148E-01  9.898E-01
   1   13    7     7     3    1.4684E+02  1.4314E+00   1.4541E+02  0.000E+00  0.000E+00  0.000E+00  1.02969E+03  2.271E+00  5.522E+01  5.585E-01  8.544E-01
   1   13    6     8     1    1.9450E+02  9.7311E-01   1.9352E+02  0.000E+00  0.000E+00  0.000E+00  1.02498E+03  3.102E+00  4.498E+01  4.584E-01  7.077E-01
   1   13    5     8     2    1.9352E+02  1.8446E-01   1.9334E+02  0.000E+00  0.000E+00  0.000E+00  1.01872E+03  3.099E+00  4.493E+01  4.579E-01  1.343E-01
   1   13    4     8     3    1.9334E+02 -2.5427E+00   1.9588E+02  0.000E+00  0.000E+00  0.000E+00  1.01248E+03  3.106E+00  4.503E+01  4.589E+00 -1.847E-01
   1   13    3     8     4    1.9588E+02 -3.7327E+00   1.9961E+02  0.000E+00  0.000E+00  0.000E+00  1.00625E+03  3.124E+00  4.530E+01  4.617E+00 -2.695E-01
   1   13    2     8     5    1.9961E+02 -2.7049E+00   2.0232E+02  0.000E+00  0.000E+00  0.000E+00  1.00002E+03  3.143E+00  4.558E+01  4.645E+00 -1.941E-01
   1   13    1     8     6    2.0232E+02 -2.0682E+00   2.0439E+02  0.000E+00  0.000E+00  0.000E+00  9.95032E+02  3.157E+00  4.578E+01  2.799E+00 -2.463E-01
   1    8    6     9     1    3.5605E+00  0.0000E+00   3.5605E+00  0.000E+00  0.000E+00  0.000E+00  1.07997E+03  1.219E+00  4.000E+00  0.000E+00  1.406E+00
   1    8    5     9     2    3.5605E+00  0.0000E+00   3.5605E+00  0.000E+00  0.000E+00  0.000E+00  1.07947E+03  1.219E+00  4.000E+00  0.000E+00  1.406E+00





UNSATURATED ZONE PACKAGE VOLUMETRIC BUDGET FOR  TIME STEP    30 STRESS PERIOD   17
  ------------------------------------------------------------------------------



     CUMULATIVE VOLUMES      L**3       RATES FOR THIS TIME STEP      L**3/T
     ------------------                 ------------------------

           IN:                                      IN:
           ---                                      ---
        INFILTRATION =   677653181.0994          INFILTRATION =           7.9681

          OUT:                                     OUT:
          ----                                     ----
              UZF ET =   536349741.0743                UZF ET =           7.8609
        UZF RECHARGE =      627361.4960          UZF RECHARGE =       0.0000E+00

            IN - OUT =   140676078.5291              IN - OUT =           0.1072

          STORAGE:                                 STORAGE:
          --------                                 --------
      STORAGE CHANGE =   140676610.4966        STORAGE CHANGE =           0.1072

 PERCENT DISCREPANCY IS DIFFERENCE BETWEEN IN-OUT MINUS CHANGE IN STORAGE
 DIVIDED BY THE AVERAGE OF IN AND OUT TIMES 100

 PERCENT DISCREPANCY =          -0.00     PERCENT DISCREPANCY =           0.00






1
  VOLUMETRIC BUDGET FOR AGRICULTURAL FIELDS AT  END OF TIME STEP   30, STRESS PERIOD  17
  ------------------------------------------------------------------------------

     CUMULATIVE VOLUMES      L**3       RATES FOR THIS TIME STEP      L**3/T
     ------------------                 ------------------------

           IN:                                      IN:
           ---                                      ---
               AG WELLS  =   146897392.0000                 AG WELLS  =           0.0000
      DIVERSION SEGMENTS =   345338304.0000        DIVERSION SEGMENTS =           3.5605
           GW IRRIGATION =           0.0000             GW IRRIGATION =           0.0000
           SW IRRIGATION =           0.0000             SW IRRIGATION =           0.0000
        SYSTEM LOSSES GW =           0.0000          SYSTEM LOSSES GW =           0.0000
        SYSTEM LOSSES SW =           0.0000          SYSTEM LOSSES SW =           0.0000

                TOTAL IN =   492235712.0000                  TOTAL IN =           3.5605

          OUT:                                     OUT:
          ----                                     ----
               AG WELLS  =           0.0000                 AG WELLS  =           0.0000
      DIVERSION SEGMENTS =           0.0000        DIVERSION SEGMENTS =           0.0000
           GW IRRIGATION =   146897392.0000             GW IRRIGATION =           0.0000
           SW IRRIGATION =   345345120.0000             SW IRRIGATION =           3.5606
        SYSTEM LOSSES GW =           0.0000          SYSTEM LOSSES GW =           0.0000
        SYSTEM LOSSES SW =           0.0000          SYSTEM LOSSES SW =           0.0000

               TOTAL OUT =   492242496.0000                 TOTAL OUT =           3.5606

                IN - OUT =       -6784.0000                  IN - OUT =      -7.1049E-05

     PERCENT DISCREPANCY =          -0.00         PERCENT DISCREPANCY =          -0.00



1
  VOLUMETRIC BUDGET FOR ENTIRE MODEL AT END OF TIME STEP   30, STRESS PERIOD  17
  ------------------------------------------------------------------------------

     CUMULATIVE VOLUMES      L**3       RATES FOR THIS TIME STEP      L**3/T
     ------------------                 ------------------------

           IN:                                      IN:
           ---                                      ---
             STORAGE     =   259573968.0000               STORAGE     =           1.4351
       CONSTANT HEAD     =           0.0000         CONSTANT HEAD     =           0.0000
     HEAD DEP BOUNDS     =    12048880.0000       HEAD DEP BOUNDS     =           0.2858
      STREAM LEAKAGE     =   506869152.0000        STREAM LEAKAGE     =          12.5317
        UZF RECHARGE     =      627361.5000          UZF RECHARGE     =           0.0000
               GW ET     =           0.0000                 GW ET     =           0.0000
     SURFACE LEAKAGE     =           0.0000       SURFACE LEAKAGE     =           0.0000
           AG WELLS      =           0.0000             AG WELLS      =           0.0000

                TOTAL IN =   779119424.0000                  TOTAL IN =          14.2526

          OUT:                                     OUT:
          ----                                     ----
             STORAGE     =   165453312.0000               STORAGE     =           2.8027
       CONSTANT HEAD     =           0.0000         CONSTANT HEAD     =           0.0000
     HEAD DEP BOUNDS     =    12276434.0000       HEAD DEP BOUNDS     =           0.2953
      STREAM LEAKAGE     =   452675936.0000        STREAM LEAKAGE     =          11.0486
        UZF RECHARGE     =           0.0000          UZF RECHARGE     =           0.0000
               GW ET     =     1819643.5000                 GW ET     =           0.1059
     SURFACE LEAKAGE     =           0.0000       SURFACE LEAKAGE     =           0.0000
           AG WELLS      =   146897392.0000             AG WELLS      =           0.0000

               TOTAL OUT =   779122752.0000                 TOTAL OUT =          14.2526

                IN - OUT =       -3328.0000                  IN - OUT =       5.6267E-05

     PERCENT DISCREPANCY =          -0.00         PERCENT DISCREPANCY =           0.00






         TIME SUMMARY AT END OF TIME STEP   30 IN STRESS PERIOD   17
                    SECONDS     MINUTES      HOURS       DAYS        YEARS
                    -----------------------------------------------------------
   TIME STEP LENGTH  87667.      1461.1      24.352      1.0147     2.77799E-03
 STRESS PERIOD TIME 2.63000E+06  43833.      730.56      30.440     8.33397E-02
         TOTAL TIME 4.21664E+07 7.02774E+05  11713.      488.04      1.3362    
1
1
                            STRESS PERIOD NO.   18, LENGTH =   2630000.    
                            -----------------------------------------------

                              NUMBER OF TIME STEPS =    30

                               MULTIPLIER FOR DELT =     1.000

                            INITIAL TIME STEP SIZE =   87666.66    

 REUSING NON-PARAMETER GHB CELLS FROM LAST STRESS PERIOD

      2 GHB CELLS

 REUSING STREAM SEGMENT DATA FROM LAST STRESS PERIOD



            AREAL INFILTRATION RATE
 READING ON UNIT   19 WITH FORMAT: (10F4.0)            

            1           2           3           4           5           6           7           8           9          10
 ........................................................................................................................
   1   1.2000E-09   0.000       0.000       0.000       0.000       0.000       0.000       0.000       0.000       0.000    
   2   2.1000E-09  2.0000E-09  8.0000E-10  8.5000E-09   0.000       0.000       0.000       0.000       0.000       0.000    
   3   5.0000E-10  1.1000E-09  8.8000E-09  5.5000E-09   0.000       0.000       0.000       0.000       0.000       0.000    
   4   8.5000E-09  1.1000E-09  1.1000E-09  1.1000E-09  2.0000E-09   0.000       0.000       0.000       0.000       0.000    
   5   8.5000E-09  1.1000E-09  1.1000E-09  1.1000E-09  1.1000E-09   0.000       0.000       0.000       0.000       0.000    
   6   8.5000E-09  5.2000E-09  2.1000E-09  1.1000E-09  1.5000E-09   0.000       0.000       0.000       0.000       0.000    
   7   8.5000E-09  5.2000E-09  2.1000E-09  1.2000E-09  2.0000E-09   0.000       0.000       0.000       0.000       0.000    
   8   5.0000E-10  5.2000E-09  2.1000E-09  1.2000E-09  5.0000E-09   0.000       0.000       0.000       0.000       0.000    
   9   5.0000E-10  5.2000E-09  2.1000E-09  1.2000E-09  5.0000E-09   0.000       0.000       0.000       0.000       0.000    
  10   5.0000E-10  5.2000E-09  2.1000E-09  1.2000E-09  5.8000E-09   0.000       0.000       0.000       0.000       0.000    
  11   1.0000E-10  1.1000E-09  1.1000E-09  1.2000E-09  5.0000E-09   0.000       0.000       0.000       0.000       0.000    
  12   1.1000E-09  1.1000E-09  1.1000E-09  1.1000E-09  2.0000E-09   0.000       0.000       0.000       0.000       0.000    
  13   1.1000E-09  2.2000E-09  2.2000E-09  2.1000E-09  1.0000E-09   0.000       0.000       0.000       0.000       0.000    
  14   2.0000E-10  5.5000E-09  5.5000E-09  5.2000E-09  1.0000E-09   0.000       0.000       0.000       0.000       0.000    
  15    0.000      8.8000E-09  8.8000E-09   0.000       0.000       0.000       0.000       0.000       0.000       0.000    

                  ET RATE =  5.000000E-08

 USING ET EXTINCTION DEPTH FROM PREVIOUS STRESS PERIOD. CURRENT PERIOD IS:      18

 USING EXTINCTION WATER CONTENT FROM PREVIOUS STRESS PERIOD. CURRENT PERIOD IS:      18

 USING AIR ENTRY PRESSURE FROM PREVIOUS STRESS PERIOD. CURRENT PERIOD IS:      18

 USING ROOT PRESSURE HEAD FROM PREVIOUS STRESS PERIOD. CURRENT PERIOD IS:      18

 USING ROOT ACTIVITY FROM PREVIOUS STRESS PERIOD. CURRENT PERIOD IS:      18

 PROCESSING AG STRESS PERIOD DATA

 READING AG STRESS PERIOD DATA

 READING IRRIGATION SEGMENT

 READING IRRIGATION WELL

 READING SUPPLEMENTAL WELL

 END PROCESSING AG STRESS PERIOD DATA OPTIONS
 
 SOLVING FOR HEAD 
                                                   Max.-Head-Change                         Max.-Flux-Residual
  Residual-Control   Outer-Iter.   Inner-Iter.     Column Row Layer    Maximum-Head-Change  Column Row Layer    Maximum-Flux-Residual          L2-NORM 
          0                 1           2             1    1     1       0.3127754888E-02       3   13    1        -0.1848926588E+00      0.5846838326E+00
          0                 2           2             4    7     1      -0.1158506804E-01       4    7    1        -0.6222069190E+00      0.1524082725E+01
          0                 3           2             4    7     1       0.1177489026E-01       4    7    1         0.6500745626E+00      0.1597138429E+01
          0                 4           2             4    7     1      -0.4667127886E-03       4    7    1        -0.2648475367E-01      0.6601291805E-01
          0                 5           1             4   13     1      -0.8945501074E-05       4   13    1        -0.5639191004E-03      0.1395416442E-02

    ------------------------------------------------
       NWT REQUIRED            5 OUTER ITERATIONS 
       AND A TOTAL OF          9 INNER ITERATIONS.
    ------------------------------------------------

 NO OUTPUT CONTROL FOR STRESS PERIOD   18   TIME STEP    1
 
 SOLVING FOR HEAD 
                                                   Max.-Head-Change                         Max.-Flux-Residual
  Residual-Control   Outer-Iter.   Inner-Iter.     Column Row Layer    Maximum-Head-Change  Column Row Layer    Maximum-Flux-Residual          L2-NORM 
          0                 1           2             1    1     1       0.3125201837E-02       1    1    1         0.1621988416E+00      0.5564142359E+00
          0                 2           2             4    7     1      -0.1151401072E-01       4    7    1        -0.6183906278E+00      0.1515136318E+01
          0                 3           2             4    7     1       0.1167552418E-01       4    7    1         0.6445887590E+00      0.1583657022E+01
          0                 4           2             4    7     1      -0.4583978291E-03       4    7    1        -0.2601290327E-01      0.6479441240E-01
          0                 5           1             4   13     1      -0.1124357582E-04       4   13    1        -0.7087471604E-03      0.1933350338E-02

    ------------------------------------------------
       NWT REQUIRED            5 OUTER ITERATIONS 
       AND A TOTAL OF          9 INNER ITERATIONS.
    ------------------------------------------------

 NO OUTPUT CONTROL FOR STRESS PERIOD   18   TIME STEP    2
 
 SOLVING FOR HEAD 
                                                   Max.-Head-Change                         Max.-Flux-Residual
  Residual-Control   Outer-Iter.   Inner-Iter.     Column Row Layer    Maximum-Head-Change  Column Row Layer    Maximum-Flux-Residual          L2-NORM 
          0                 1           2             1    1     1       0.3122656512E-02       1    1    1         0.1620664700E+00      0.5356739503E+00
          0                 2           2             4    7     1      -0.1153447859E-01       4    7    1        -0.6194897717E+00      0.1518257124E+01
          0                 3           2             4    7     1       0.1170140054E-01       4    7    1         0.6460173929E+00      0.1587142235E+01
          0                 4           2             4    7     1      -0.4599022406E-03       4    7    1        -0.2609827629E-01      0.6500573666E-01
          0                 5           1             4   13     1      -0.1096511185E-04       4   13    1        -0.6911441360E-03      0.1874171591E-02

    ------------------------------------------------
       NWT REQUIRED            5 OUTER ITERATIONS 
       AND A TOTAL OF          9 INNER ITERATIONS.
    ------------------------------------------------

 NO OUTPUT CONTROL FOR STRESS PERIOD   18   TIME STEP    3
 
 SOLVING FOR HEAD 
                                                   Max.-Head-Change                         Max.-Flux-Residual
  Residual-Control   Outer-Iter.   Inner-Iter.     Column Row Layer    Maximum-Head-Change  Column Row Layer    Maximum-Flux-Residual          L2-NORM 
          0                 1           2             1    1     1       0.3120118905E-02       1    1    1         0.1619344990E+00      0.5209210978E+00
          0                 2           2             4    7     1      -0.1154304065E-01       4    7    1        -0.6199495049E+00      0.1519778550E+01
          0                 3           2             4    7     1       0.1173544866E-01       4    7    1         0.6478971789E+00      0.1591721358E+01
          0                 4           2             4    7     1      -0.4650831360E-03       4    7    1        -0.2639228032E-01      0.6576538093E-01
          0                 5           1             4   13     1      -0.8882133817E-05       4   13    1        -0.5598600019E-03      0.1396697696E-02

    ------------------------------------------------
       NWT REQUIRED            5 OUTER ITERATIONS 
       AND A TOTAL OF          9 INNER ITERATIONS.
    ------------------------------------------------

 NO OUTPUT CONTROL FOR STRESS PERIOD   18   TIME STEP    4
 
 SOLVING FOR HEAD 
                                                   Max.-Head-Change                         Max.-Flux-Residual
  Residual-Control   Outer-Iter.   Inner-Iter.     Column Row Layer    Maximum-Head-Change  Column Row Layer    Maximum-Flux-Residual          L2-NORM 
          0                 1           2             1    1     1       0.3117611528E-02       1    1    1         0.1618041006E+00      0.5108678756E+00
          0                 2           2             4    7     1      -0.1154521477E-01       4    7    1        -0.6200662212E+00      0.1520426042E+01
          0                 3           2             4    7     1       0.1175078620E-01       4    7    1         0.6487439864E+00      0.1593774958E+01
          0                 4           2             4    7     1      -0.4675770648E-03       4    7    1        -0.2653380614E-01      0.6612932617E-01
          0                 5           1             4   13     1      -0.7845230937E-05       4   13    1        -0.4945176897E-03      0.1166516513E-02

    ------------------------------------------------
       NWT REQUIRED            5 OUTER ITERATIONS 
       AND A TOTAL OF          9 INNER ITERATIONS.
    ------------------------------------------------

 NO OUTPUT CONTROL FOR STRESS PERIOD   18   TIME STEP    5
 
 SOLVING FOR HEAD 
                                                   Max.-Head-Change                         Max.-Flux-Residual
  Residual-Control   Outer-Iter.   Inner-Iter.     Column Row Layer    Maximum-Head-Change  Column Row Layer    Maximum-Flux-Residual          L2-NORM 
          0                 1           2             1    1     1       0.3115089163E-02       1    1    1         0.1616729247E+00      0.5044318327E+00
          0                 2           2             4    7     1      -0.1154832760E-01       4    7    1        -0.6202333013E+00      0.1521171308E+01
          0                 3           2             4    7     1       0.1175558357E-01       4    7    1         0.6490088824E+00      0.1594411075E+01
          0                 4           2             4    7     1      -0.4677679581E-03       4    7    1        -0.2654464051E-01      0.6615259061E-01
          0                 5           1             4   13     1      -0.7846469567E-05       4   13    1        -0.4946000663E-03      0.1166189883E-02

    ------------------------------------------------
       NWT REQUIRED            5 OUTER ITERATIONS 
       AND A TOTAL OF          9 INNER ITERATIONS.
    ------------------------------------------------

 NO OUTPUT CONTROL FOR STRESS PERIOD   18   TIME STEP    6
 
 SOLVING FOR HEAD 
                                                   Max.-Head-Change                         Max.-Flux-Residual
  Residual-Control   Outer-Iter.   Inner-Iter.     Column Row Layer    Maximum-Head-Change  Column Row Layer    Maximum-Flux-Residual          L2-NORM 
          0                 1           2             1    1     1       0.3112574414E-02       1    1    1         0.1615421442E+00      0.5006688239E+00
          0                 2           2             4    7     1      -0.1155078961E-01       4    7    1        -0.6203654739E+00      0.1521804220E+01
          0                 3           2             4    7     1       0.1173104525E-01       4    7    1         0.6476542014E+00      0.1591206653E+01
          0                 4           2             4    7     1      -0.4621195901E-03       4    7    1        -0.2622411194E-01      0.6513025576E-01
          0                 5           1             2   13     1      -0.9836764215E-05       2   13    1        -0.5863185879E-03      0.1660386955E-02

    ------------------------------------------------
       NWT REQUIRED            5 OUTER ITERATIONS 
       AND A TOTAL OF          9 INNER ITERATIONS.
    ------------------------------------------------

 NO OUTPUT CONTROL FOR STRESS PERIOD   18   TIME STEP    7
 
 SOLVING FOR HEAD 
                                                   Max.-Head-Change                         Max.-Flux-Residual
  Residual-Control   Outer-Iter.   Inner-Iter.     Column Row Layer    Maximum-Head-Change  Column Row Layer    Maximum-Flux-Residual          L2-NORM 
          0                 1           2             1    1     1       0.3110067223E-02       1    1    1         0.1614117586E+00      0.4989010104E+00
          0                 2           2             4    7     1      -0.1154953568E-01       4    7    1        -0.6202979432E+00      0.1521929766E+01
          0                 3           2             4    7     1       0.1173126383E-01       4    7    1         0.6476663027E+00      0.1591314628E+01
          0                 4           2             4    7     1      -0.4621268888E-03       4    7    1        -0.2622452749E-01      0.6499048891E-01
          0                 5           1             2   13     1      -0.9879603616E-05       2   13    1        -0.5909010961E-03      0.1595684882E-02

    ------------------------------------------------
       NWT REQUIRED            5 OUTER ITERATIONS 
       AND A TOTAL OF          9 INNER ITERATIONS.
    ------------------------------------------------

 NO OUTPUT CONTROL FOR STRESS PERIOD   18   TIME STEP    8
 
 SOLVING FOR HEAD 
                                                   Max.-Head-Change                         Max.-Flux-Residual
  Residual-Control   Outer-Iter.   Inner-Iter.     Column Row Layer    Maximum-Head-Change  Column Row Layer    Maximum-Flux-Residual          L2-NORM 
          0                 1           2             1    1     1       0.3107567598E-02       1    1    1         0.1612817648E+00      0.4985319586E+00
          0                 2           2             4    7     1      -0.1154822085E-01       4    7    1        -0.6202272221E+00      0.1522021131E+01
          0                 3           2             4    7     1       0.1173134763E-01       4    7    1         0.6476709684E+00      0.1591419928E+01
          0                 4           2             4    7     1      -0.4621218188E-03       4    7    1        -0.2622424134E-01      0.6483023480E-01
          0                 5           1             4    7     1       0.9461662433E-05       4    7    1         0.5518457569E-03      0.1519760352E-02

    ------------------------------------------------
       NWT REQUIRED            5 OUTER ITERATIONS 
       AND A TOTAL OF          9 INNER ITERATIONS.
    ------------------------------------------------

 NO OUTPUT CONTROL FOR STRESS PERIOD   18   TIME STEP    9
 
 SOLVING FOR HEAD 
                                                   Max.-Head-Change                         Max.-Flux-Residual
  Residual-Control   Outer-Iter.   Inner-Iter.     Column Row Layer    Maximum-Head-Change  Column Row Layer    Maximum-Flux-Residual          L2-NORM 
          0                 1           2             1    1     1       0.3105098046E-02       1    1    1         0.1611533362E+00      0.4991222130E+00
          0                 2           2             4    7     1      -0.1153260978E-01       4    7    1        -0.6193886254E+00      0.1520205588E+01
          0                 3           2             4    7     1       0.1171369743E-01       4    7    1         0.6466965608E+00      0.1589024261E+01
          0                 4           2             4    7     1      -0.4609517378E-03       4    7    1        -0.2615784363E-01      0.6466199776E-01
          0                 5           1             4    7     1       0.9827400281E-05       4    7    1         0.5731772198E-03      0.1579246262E-02

    ------------------------------------------------
       NWT REQUIRED            5 OUTER ITERATIONS 
       AND A TOTAL OF          9 INNER ITERATIONS.
    ------------------------------------------------

 NO OUTPUT CONTROL FOR STRESS PERIOD   18   TIME STEP   10
 
 SOLVING FOR HEAD 
                                                   Max.-Head-Change                         Max.-Flux-Residual
  Residual-Control   Outer-Iter.   Inner-Iter.     Column Row Layer    Maximum-Head-Change  Column Row Layer    Maximum-Flux-Residual          L2-NORM 
          0                 1           2             1    1     1       0.3102613331E-02       1    1    1         0.1610241210E+00      0.5003489277E+00
          0                 2           2             4    7     1      -0.1154120772E-01       4    7    1        -0.6198502203E+00      0.1521568498E+01
          0                 3           2             4    7     1       0.1172738192E-01       4    7    1         0.6474520952E+00      0.1590875180E+01
          0                 4           2             4    7     1      -0.4620200381E-03       4    7    1        -0.2621846830E-01      0.6481531088E-01
          0                 5           1             4    7     1       0.9415440855E-05       4    7    1         0.5491499792E-03      0.1512633787E-02

    ------------------------------------------------
       NWT REQUIRED            5 OUTER ITERATIONS 
       AND A TOTAL OF          9 INNER ITERATIONS.
    ------------------------------------------------

 NO OUTPUT CONTROL FOR STRESS PERIOD   18   TIME STEP   11
 
 SOLVING FOR HEAD 
                                                   Max.-Head-Change                         Max.-Flux-Residual
  Residual-Control   Outer-Iter.   Inner-Iter.     Column Row Layer    Maximum-Head-Change  Column Row Layer    Maximum-Flux-Residual          L2-NORM 
          0                 1           2             1    1     1       0.3100136067E-02       1    1    1         0.1608952926E+00      0.5019710592E+00
          0                 2           2             4    7     1      -0.1157077693E-01       4    7    1        -0.6214381372E+00      0.1525683239E+01
          0                 3           2             4    7     1       0.1176773185E-01       4    7    1         0.6496797898E+00      0.1596345280E+01
          0                 4           2             4    7     1      -0.4649322500E-03       4    7    1        -0.2638373025E-01      0.6522414253E-01
          0                 5           1             4    7     1       0.8391246197E-05       4    7    1         0.4894144981E-03      0.1341497816E-02

    ------------------------------------------------
       NWT REQUIRED            5 OUTER ITERATIONS 
       AND A TOTAL OF          9 INNER ITERATIONS.
    ------------------------------------------------

 NO OUTPUT CONTROL FOR STRESS PERIOD   18   TIME STEP   12
 
 SOLVING FOR HEAD 
                                                   Max.-Head-Change                         Max.-Flux-Residual
  Residual-Control   Outer-Iter.   Inner-Iter.     Column Row Layer    Maximum-Head-Change  Column Row Layer    Maximum-Flux-Residual          L2-NORM 
          0                 1           2             1    1     1       0.3097666197E-02       1    1    1         0.1607668505E+00      0.5038269094E+00
          0                 2           2             4    7     1      -0.1157941905E-01       4    7    1        -0.6219021881E+00      0.1527014157E+01
          0                 3           2             4    7     1       0.1178136970E-01       4    7    1         0.6504327543E+00      0.1598190529E+01
          0                 4           2             4    7     1      -0.4659930914E-03       4    7    1        -0.2644393187E-01      0.6537646546E-01
          0                 5           1             4    7     1       0.7983284133E-05       4    7    1         0.4656203751E-03      0.1275754403E-02

    ------------------------------------------------
       NWT REQUIRED            5 OUTER ITERATIONS 
       AND A TOTAL OF          9 INNER ITERATIONS.
    ------------------------------------------------

 NO OUTPUT CONTROL FOR STRESS PERIOD   18   TIME STEP   13
 
 SOLVING FOR HEAD 
                                                   Max.-Head-Change                         Max.-Flux-Residual
  Residual-Control   Outer-Iter.   Inner-Iter.     Column Row Layer    Maximum-Head-Change  Column Row Layer    Maximum-Flux-Residual          L2-NORM 
          0                 1           2             1    1     1       0.3095203729E-02       1    1    1         0.1606387918E+00      0.5057604438E+00
          0                 2           2             4    7     1      -0.1157857758E-01       4    7    1        -0.6218568075E+00      0.1527081979E+01
          0                 3           2             4    7     1       0.1178208711E-01       4    7    1         0.6504723936E+00      0.1598286322E+01
          0                 4           2             4    7     1      -0.4660384432E-03       4    7    1        -0.2644650677E-01      0.6538261072E-01
          0                 5           1             4    7     1       0.7970216706E-05       4    7    1         0.4648582476E-03      0.1273774765E-02

    ------------------------------------------------
       NWT REQUIRED            5 OUTER ITERATIONS 
       AND A TOTAL OF          9 INNER ITERATIONS.
    ------------------------------------------------

 NO OUTPUT CONTROL FOR STRESS PERIOD   18   TIME STEP   14
 
 SOLVING FOR HEAD 
                                                   Max.-Head-Change                         Max.-Flux-Residual
  Residual-Control   Outer-Iter.   Inner-Iter.     Column Row Layer    Maximum-Head-Change  Column Row Layer    Maximum-Flux-Residual          L2-NORM 
          0                 1           2             1    1     1       0.3092748591E-02       1    1    1         0.1605111169E+00      0.5077090516E+00
          0                 2           2             4    7     1      -0.1157775006E-01       4    7    1        -0.6218122038E+00      0.1527136498E+01
          0                 3           2             4    7     1       0.1178277309E-01       4    7    1         0.6505102992E+00      0.1598378009E+01
          0                 4           2             4    7     1      -0.4660825449E-03       4    7    1        -0.2644901081E-01      0.6538855301E-01
          0                 5           1             4    7     1       0.7957134269E-05       4    7    1         0.4640952561E-03      0.1271944700E-02

    ------------------------------------------------
       NWT REQUIRED            5 OUTER ITERATIONS 
       AND A TOTAL OF          9 INNER ITERATIONS.
    ------------------------------------------------

 NO OUTPUT CONTROL FOR STRESS PERIOD   18   TIME STEP   15
 
 SOLVING FOR HEAD 
                                                   Max.-Head-Change                         Max.-Flux-Residual
  Residual-Control   Outer-Iter.   Inner-Iter.     Column Row Layer    Maximum-Head-Change  Column Row Layer    Maximum-Flux-Residual          L2-NORM 
          0                 1           2             1    1     1       0.3090300775E-02       1    1    1         0.1603838219E+00      0.5096069392E+00
          0                 2           2             4    7     1      -0.1157691010E-01       4    7    1        -0.6217669708E+00      0.1527176732E+01
          0                 3           2             4    7     1       0.1178342656E-01       4    7    1         0.6505464124E+00      0.1598465721E+01
          0                 4           2             4    7     1      -0.4661253530E-03       4    7    1        -0.2645144151E-01      0.6539412644E-01
          0                 5           1             4    7     1       0.7945398923E-05       4    7    1         0.4634108163E-03      0.1269805844E-02

    ------------------------------------------------
       NWT REQUIRED            5 OUTER ITERATIONS 
       AND A TOTAL OF          9 INNER ITERATIONS.
    ------------------------------------------------

 NO OUTPUT CONTROL FOR STRESS PERIOD   18   TIME STEP   16
 
 SOLVING FOR HEAD 
                                                   Max.-Head-Change                         Max.-Flux-Residual
  Residual-Control   Outer-Iter.   Inner-Iter.     Column Row Layer    Maximum-Head-Change  Column Row Layer    Maximum-Flux-Residual          L2-NORM 
          0                 1           2             1    1     1       0.3087860241E-02       1    1    1         0.1602569067E+00      0.5113948034E+00
          0                 2           2             4    7     1      -0.1157605825E-01       4    7    1        -0.6217210635E+00      0.1527203687E+01
          0                 3           2             4    7     1       0.1178404755E-01       4    7    1         0.6505807300E+00      0.1598579978E+01
          0                 4           2             4    7     1      -0.4661654690E-03       4    7    1        -0.2645371934E-01      0.6529917376E-01
          0                 5           1             4    7     1       0.7933629972E-05       4    7    1         0.4627244234E-03      0.1237191680E-02

    ------------------------------------------------
       NWT REQUIRED            5 OUTER ITERATIONS 
       AND A TOTAL OF          9 INNER ITERATIONS.
    ------------------------------------------------

 NO OUTPUT CONTROL FOR STRESS PERIOD   18   TIME STEP   17
 
 SOLVING FOR HEAD 
                                                   Max.-Head-Change                         Max.-Flux-Residual
  Residual-Control   Outer-Iter.   Inner-Iter.     Column Row Layer    Maximum-Head-Change  Column Row Layer    Maximum-Flux-Residual          L2-NORM 
          0                 1           2             1    1     1       0.3085426966E-02       1    1    1         0.1601303690E+00      0.5129262641E+00
          0                 2           2             4    7     1      -0.1157516715E-01       4    7    1        -0.6216730319E+00      0.1527508167E+01
          0                 3           2             4    7     1       0.1178463421E-01       4    7    1         0.6506131505E+00      0.1598645390E+01
          0                 4           2             4    7     1      -0.4662014169E-03       4    7    1        -0.2645576058E-01      0.6522975431E-01
          0                 5           1             4    7     1       0.7921809719E-05       4    7    1         0.4620350524E-03      0.1224685212E-02

    ------------------------------------------------
       NWT REQUIRED            5 OUTER ITERATIONS 
       AND A TOTAL OF          9 INNER ITERATIONS.
    ------------------------------------------------

 NO OUTPUT CONTROL FOR STRESS PERIOD   18   TIME STEP   18
 
 SOLVING FOR HEAD 
                                                   Max.-Head-Change                         Max.-Flux-Residual
  Residual-Control   Outer-Iter.   Inner-Iter.     Column Row Layer    Maximum-Head-Change  Column Row Layer    Maximum-Flux-Residual          L2-NORM 
          0                 1           2             1    1     1       0.3083000893E-02       1    1    1         0.1600042077E+00      0.5141607493E+00
          0                 2           2             4    7     1      -0.1157426824E-01       4    7    1        -0.6216245564E+00      0.1527426914E+01
          0                 3           2             4    7     1       0.1180170012E-01       4    7    1         0.6515553650E+00      0.1600967951E+01
          0                 4           2             4    7     1      -0.4696029965E-03       4    7    1        -0.2664879287E-01      0.6585256444E-01
          0                 5           1             4    7     1       0.5790405088E-05       4    7    1         0.3377221251E-03      0.8951301926E-03

    ------------------------------------------------
       NWT REQUIRED            5 OUTER ITERATIONS 
       AND A TOTAL OF          9 INNER ITERATIONS.
    ------------------------------------------------

 NO OUTPUT CONTROL FOR STRESS PERIOD   18   TIME STEP   19
 
 SOLVING FOR HEAD 
                                                   Max.-Head-Change                         Max.-Flux-Residual
  Residual-Control   Outer-Iter.   Inner-Iter.     Column Row Layer    Maximum-Head-Change  Column Row Layer    Maximum-Flux-Residual          L2-NORM 
          0                 1           2             1    1     1       0.3080582034E-02       1    1    1         0.1598784198E+00      0.5152820077E+00
          0                 2           2             4    7     1      -0.1157416374E-01       4    7    1        -0.6216188579E+00      0.1527445360E+01
          0                 3           2             4    7     1       0.1180297157E-01       4    7    1         0.6516255976E+00      0.1601196428E+01
          0                 4           2             4    7     1      -0.4696535896E-03       4    7    1        -0.2665166544E-01      0.6586560277E-01
          0                 5           1             4    7     1       0.5791028787E-05       4    7    1         0.3377585285E-03      0.8960831653E-03

    ------------------------------------------------
       NWT REQUIRED            5 OUTER ITERATIONS 
       AND A TOTAL OF          9 INNER ITERATIONS.
    ------------------------------------------------

 NO OUTPUT CONTROL FOR STRESS PERIOD   18   TIME STEP   20
 
 SOLVING FOR HEAD 
                                                   Max.-Head-Change                         Max.-Flux-Residual
  Residual-Control   Outer-Iter.   Inner-Iter.     Column Row Layer    Maximum-Head-Change  Column Row Layer    Maximum-Flux-Residual          L2-NORM 
          0                 1           2             1    1     1       0.3078170341E-02       1    1    1         0.1597530060E+00      0.5163021510E+00
          0                 2           2             4    7     1      -0.1157398799E-01       4    7    1        -0.6216092234E+00      0.1527457443E+01
          0                 3           2             4    7     1       0.1180418095E-01       4    7    1         0.6516923957E+00      0.1601413518E+01
          0                 4           2             4    7     1      -0.4697017125E-03       4    7    1        -0.2665439750E-01      0.6587813707E-01
          0                 5           1             4    7     1       0.5791622017E-05       4    7    1         0.3377931553E-03      0.8968985869E-03

    ------------------------------------------------
       NWT REQUIRED            5 OUTER ITERATIONS 
       AND A TOTAL OF          9 INNER ITERATIONS.
    ------------------------------------------------

 NO OUTPUT CONTROL FOR STRESS PERIOD   18   TIME STEP   21
 
 SOLVING FOR HEAD 
                                                   Max.-Head-Change                         Max.-Flux-Residual
  Residual-Control   Outer-Iter.   Inner-Iter.     Column Row Layer    Maximum-Head-Change  Column Row Layer    Maximum-Flux-Residual          L2-NORM 
          0                 1           2             1    1     1       0.3075765756E-02       1    1    1         0.1596279636E+00      0.5172095077E+00
          0                 2           2             4    7     1      -0.1157376795E-01       4    7    1        -0.6215972478E+00      0.1527461945E+01
          0                 3           2             4    7     1       0.1178978348E-01       4    7    1         0.6508975639E+00      0.1599523761E+01
          0                 4           2             4    7     1      -0.4665757701E-03       4    7    1        -0.2647700944E-01      0.6542648702E-01
          0                 5           1             4    7     1       0.7788801958E-05       4    7    1         0.4542775532E-03      0.1221549795E-02

    ------------------------------------------------
       NWT REQUIRED            5 OUTER ITERATIONS 
       AND A TOTAL OF          9 INNER ITERATIONS.
    ------------------------------------------------

 NO OUTPUT CONTROL FOR STRESS PERIOD   18   TIME STEP   22
 
 SOLVING FOR HEAD 
                                                   Max.-Head-Change                         Max.-Flux-Residual
  Residual-Control   Outer-Iter.   Inner-Iter.     Column Row Layer    Maximum-Head-Change  Column Row Layer    Maximum-Flux-Residual          L2-NORM 
          0                 1           2             1    1     1       0.3073368292E-02       1    1    1         0.1595032898E+00      0.5180339728E+00
          0                 2           2             4    7     1      -0.1157279247E-01       4    7    1        -0.6215447114E+00      0.1527407610E+01
          0                 3           2             4    7     1       0.1179017333E-01       4    7    1         0.6509191190E+00      0.1599416093E+01
          0                 4           2             4    7     1      -0.4665996854E-03       4    7    1        -0.2647836789E-01      0.6541349618E-01
          0                 5           1             4    7     1       0.7783646588E-05       4    7    1         0.4539768947E-03      0.1218137111E-02

    ------------------------------------------------
       NWT REQUIRED            5 OUTER ITERATIONS 
       AND A TOTAL OF          9 INNER ITERATIONS.
    ------------------------------------------------

 NO OUTPUT CONTROL FOR STRESS PERIOD   18   TIME STEP   23
 
 SOLVING FOR HEAD 
                                                   Max.-Head-Change                         Max.-Flux-Residual
  Residual-Control   Outer-Iter.   Inner-Iter.     Column Row Layer    Maximum-Head-Change  Column Row Layer    Maximum-Flux-Residual          L2-NORM 
          0                 1           2             1    1     1       0.3070977876E-02       1    1    1         0.1593789853E+00      0.5187614548E+00
          0                 2           2             4    7     1      -0.1157181277E-01       4    7    1        -0.6214919129E+00      0.1527365628E+01
          0                 3           2             4    7     1       0.1179054022E-01       4    7    1         0.6509394042E+00      0.1599466328E+01
          0                 4           2             4    7     1      -0.4666198877E-03       4    7    1        -0.2647951553E-01      0.6541494880E-01
          0                 5           1             4    7     1       0.7777082294E-05       4    7    1         0.4535940534E-03      0.1217247628E-02

    ------------------------------------------------
       NWT REQUIRED            5 OUTER ITERATIONS 
       AND A TOTAL OF          9 INNER ITERATIONS.
    ------------------------------------------------

 NO OUTPUT CONTROL FOR STRESS PERIOD   18   TIME STEP   24
 
 SOLVING FOR HEAD 
                                                   Max.-Head-Change                         Max.-Flux-Residual
  Residual-Control   Outer-Iter.   Inner-Iter.     Column Row Layer    Maximum-Head-Change  Column Row Layer    Maximum-Flux-Residual          L2-NORM 
          0                 1           2             1    1     1       0.3068594519E-02       1    1    1         0.1592550462E+00      0.5193897052E+00
          0                 2           2             4    7     1      -0.1156317305E-01       4    7    1        -0.6210277284E+00      0.1526306596E+01
          0                 3           2             4    7     1       0.1178076927E-01       4    7    1         0.6503999938E+00      0.1598143957E+01
          0                 4           2             4    7     1      -0.4658907757E-03       4    7    1        -0.2643814145E-01      0.6531032956E-01
          0                 5           1             4    7     1       0.8046062175E-05       4    7    1         0.4692821853E-03      0.1261017325E-02

    ------------------------------------------------
       NWT REQUIRED            5 OUTER ITERATIONS 
       AND A TOTAL OF          9 INNER ITERATIONS.
    ------------------------------------------------

 NO OUTPUT CONTROL FOR STRESS PERIOD   18   TIME STEP   25
 
 SOLVING FOR HEAD 
                                                   Max.-Head-Change                         Max.-Flux-Residual
  Residual-Control   Outer-Iter.   Inner-Iter.     Column Row Layer    Maximum-Head-Change  Column Row Layer    Maximum-Flux-Residual          L2-NORM 
          0                 1           2             1    1     1       0.3066195563E-02       1    1    1         0.1591302986E+00      0.5199098784E+00
          0                 2           2             4    7     1      -0.1156999649E-01       4    7    1        -0.6213939564E+00      0.1527288695E+01
          0                 3           2             4    7     1       0.1179145614E-01       4    7    1         0.6509900260E+00      0.1599593872E+01
          0                 4           2             4    7     1      -0.4666787405E-03       4    7    1        -0.2648285752E-01      0.6542257497E-01
          0                 5           1             4    7     1       0.7758730904E-05       4    7    1         0.4525237600E-03      0.1213587652E-02

    ------------------------------------------------
       NWT REQUIRED            5 OUTER ITERATIONS 
       AND A TOTAL OF          9 INNER ITERATIONS.
    ------------------------------------------------

 NO OUTPUT CONTROL FOR STRESS PERIOD   18   TIME STEP   26
 
 SOLVING FOR HEAD 
                                                   Max.-Head-Change                         Max.-Flux-Residual
  Residual-Control   Outer-Iter.   Inner-Iter.     Column Row Layer    Maximum-Head-Change  Column Row Layer    Maximum-Flux-Residual          L2-NORM 
          0                 1           2             1    1     1       0.3063826233E-02       1    1    1         0.1590070912E+00      0.5203464375E+00
          0                 2           2             4    7     1      -0.1156900812E-01       4    7    1        -0.6213407343E+00      0.1527231417E+01
          0                 3           2             4    7     1       0.1179176163E-01       4    7    1         0.6510069237E+00      0.1599636584E+01
          0                 4           2             4    7     1      -0.4666964985E-03       4    7    1        -0.2648386651E-01      0.6542530362E-01
          0                 5           1             4    7     1       0.7756224460E-05       4    7    1         0.4523776051E-03      0.1213457381E-02

    ------------------------------------------------
       NWT REQUIRED            5 OUTER ITERATIONS 
       AND A TOTAL OF          9 INNER ITERATIONS.
    ------------------------------------------------

 NO OUTPUT CONTROL FOR STRESS PERIOD   18   TIME STEP   27
 
 SOLVING FOR HEAD 
                                                   Max.-Head-Change                         Max.-Flux-Residual
  Residual-Control   Outer-Iter.   Inner-Iter.     Column Row Layer    Maximum-Head-Change  Column Row Layer    Maximum-Flux-Residual          L2-NORM 
          0                 1           2             1    1     1       0.3061463855E-02       1    1    1         0.1588842453E+00      0.5206921200E+00
          0                 2           2             4    7     1      -0.1156799305E-01       4    7    1        -0.6212859770E+00      0.1527170478E+01
          0                 3           2             4    7     1       0.1179204984E-01       4    7    1         0.6510228596E+00      0.1599677473E+01
          0                 4           2             4    7     1      -0.4667135694E-03       4    7    1        -0.2648483624E-01      0.6542770990E-01
          0                 5           1             4    7     1       0.7752347626E-05       4    7    1         0.4521515125E-03      0.1212754834E-02

    ------------------------------------------------
       NWT REQUIRED            5 OUTER ITERATIONS 
       AND A TOTAL OF          9 INNER ITERATIONS.
    ------------------------------------------------

 NO OUTPUT CONTROL FOR STRESS PERIOD   18   TIME STEP   28
 
 SOLVING FOR HEAD 
                                                   Max.-Head-Change                         Max.-Flux-Residual
  Residual-Control   Outer-Iter.   Inner-Iter.     Column Row Layer    Maximum-Head-Change  Column Row Layer    Maximum-Flux-Residual          L2-NORM 
          0                 1           2             1    1     1       0.3059108417E-02       1    1    1         0.1587617600E+00      0.5209604458E+00
          0                 2           2             4    7     1      -0.1156700240E-01       4    7    1        -0.6212326323E+00      0.1527106025E+01
          0                 3           2             4    7     1       0.1179232065E-01       4    7    1         0.6510378413E+00      0.1599717956E+01
          0                 4           2             4    7     1      -0.4667299465E-03       4    7    1        -0.2648576686E-01      0.6542635428E-01
          0                 5           1             4    7     1       0.7748460711E-05       4    7    1         0.4519248359E-03      0.1209749742E-02

    ------------------------------------------------
       NWT REQUIRED            5 OUTER ITERATIONS 
       AND A TOTAL OF          9 INNER ITERATIONS.
    ------------------------------------------------

 NO OUTPUT CONTROL FOR STRESS PERIOD   18   TIME STEP   29
 
 SOLVING FOR HEAD 
                                                   Max.-Head-Change                         Max.-Flux-Residual
  Residual-Control   Outer-Iter.   Inner-Iter.     Column Row Layer    Maximum-Head-Change  Column Row Layer    Maximum-Flux-Residual          L2-NORM 
          0                 1           2             1    1     1       0.3056759846E-02       1    1    1         0.1586396344E+00      0.5211459029E+00
          0                 2           2             4    7     1      -0.1156598949E-01       4    7    1        -0.6211780386E+00      0.1527037729E+01
          0                 3           2             4    7     1       0.1180776659E-01       4    7    1         0.6518906180E+00      0.1601801587E+01
          0                 4           2             4    7     1      -0.4698443899E-03       4    7    1        -0.2666250490E-01      0.6588101345E-01
          0                 5           1             4    7     1       0.5793381322E-05       4    7    1         0.3378958991E-03      0.8929796404E-03

    ------------------------------------------------
       NWT REQUIRED            5 OUTER ITERATIONS 
       AND A TOTAL OF          9 INNER ITERATIONS.
    ------------------------------------------------

 NO OUTPUT CONTROL FOR STRESS PERIOD   18   TIME STEP   30



 STREAM LISTING     PERIOD     18   STEP       30

 LAYER ROW COL. STREAM  RCH.  FLOW INTO     FLOW TO   FLOW OUT OF   OVRLND.     DIRECT     STREAM       STREAM     STREAM     STREAM   STREAMBED  STREAMBED
                SEG.NO.  NO.  STRM. RCH.    AQUIFER    STRM. RCH.    RUNOFF     PRECIP       ET          HEAD       DEPTH      WIDTH   CONDCTNC.   GRADIENT

   1    1    1     1     1    4.7251E+01  3.2762E-01   4.6923E+01  0.000E+00  0.000E+00  0.000E+00  1.09443E+03  1.381E+00  1.662E+01  7.477E-02  1.460E+00
   1    2    2     1     2    4.6923E+01  5.0760E-01   4.6416E+01  0.000E+00  0.000E+00  0.000E+00  1.08944E+03  1.379E+00  1.656E+01  1.159E-01  1.460E+00
   1    3    3     1     3    4.6416E+01  4.3310E-01   4.5982E+01  0.000E+00  0.000E+00  0.000E+00  1.08379E+03  1.376E+00  1.650E+01  9.898E-02  1.459E+00
   1    3    4     1     4    4.5982E+01  3.9899E-01   4.5583E+01  0.000E+00  0.000E+00  0.000E+00  1.07878E+03  1.373E+00  1.644E+01  9.124E-02  1.458E+00
   1    4    5     2     1    4.3583E+01  3.6514E-01   4.3218E+01  0.000E+00  0.000E+00  0.000E+00  1.07362E+03  1.681E+00  1.200E+01  7.800E-02  1.560E+00
   1    5    6     2     2    4.3218E+01  2.8043E-01   4.2938E+01  0.000E+00  0.000E+00  0.000E+00  1.06818E+03  1.674E+00  1.200E+01  6.000E-02  1.558E+00
   1    6    6     2     3    4.2938E+01  2.8003E-01   4.2658E+01  0.000E+00  0.000E+00  0.000E+00  1.06346E+03  1.667E+00  1.200E+01  6.000E-02  1.556E+00
   1    7    6     2     4    4.2658E+01  2.7964E-01   4.2378E+01  0.000E+00  0.000E+00  0.000E+00  1.05874E+03  1.661E+00  1.200E+01  6.000E-02  1.554E+00
   1    8    6     2     5    4.2378E+01  2.7925E-01   4.2099E+01  0.000E+00  0.000E+00  0.000E+00  1.05401E+03  1.654E+00  1.200E+01  6.000E-02  1.551E+00
   1    3    5     3     1    2.0000E+00  2.8252E-01   1.7175E+00  0.000E+00  0.000E+00  0.000E+00  1.07555E+03  1.909E+00  9.636E+00  7.227E-02  1.955E+00
   1    3    6     3     2    1.7175E+00  2.4905E-01   1.4684E+00  0.000E+00  0.000E+00  0.000E+00  1.07264E+03  1.727E+00  8.909E+00  6.682E-02  1.864E+00
   1    3    7     3     3    1.4684E+00  1.9718E-01   1.2712E+00  0.000E+00  0.000E+00  0.000E+00  1.06987E+03  1.555E+00  8.218E+00  5.547E-02  1.777E+00
   1    4    8     3     4    1.2712E+00  2.2567E-01   1.0456E+00  0.000E+00  0.000E+00  0.000E+00  1.06682E+03  1.364E+00  7.455E+00  6.709E-02  1.682E+00
   1    5    8     3     5    1.0456E+00  1.5790E-01   8.8768E-01  0.000E+00  0.000E+00  0.000E+00  1.06362E+03  1.164E+00  6.655E+00  4.991E-02  1.582E+00
   1    6    8     3     6    8.8768E-01  5.5980E-02   8.3170E-01  0.000E+00  0.000E+00  0.000E+00  1.06158E+03  1.036E+00  6.145E+00  1.844E-02  1.518E+00
   1    5   10     4     1    1.0000E+01  9.0919E-02   9.9091E+00  0.000E+00  0.000E+00  0.000E+00  1.07836E+03  6.368E-01  1.000E+01  2.500E-02  1.212E+00
   1    5    9     4     2    9.9091E+00  1.8158E-01   9.7275E+00  0.000E+00  0.000E+00  0.000E+00  1.07154E+03  6.315E-01  1.000E+01  5.000E-02  1.211E+00
   1    6    8     4     3    9.7275E+00  1.2689E-01   9.6006E+00  0.000E+00  0.000E+00  0.000E+00  1.06381E+03  6.256E-01  1.000E+01  3.500E-02  1.209E+00
   1    6    8     5     1    1.0432E+01  2.2686E-01   1.0205E+01  0.000E+00  0.000E+00  0.000E+00  1.05868E+03  6.790E-01  1.542E+01  6.166E-02  1.226E+00
   1    7    7     5     2    1.0205E+01  2.7894E-01   9.9265E+00  0.000E+00  0.000E+00  0.000E+00  1.05417E+03  6.732E-01  1.519E+01  7.594E-02  1.224E+00
   1    8    7     5     3    9.9265E+00  1.9221E-01   9.7343E+00  0.000E+00  0.000E+00  0.000E+00  1.04992E+03  6.676E-01  1.497E+01  5.241E-02  1.223E+00
   1    8    6     5     4    9.7343E+00  1.3577E-01   9.5985E+00  0.000E+00  0.000E+00  0.000E+00  1.04691E+03  6.637E-01  1.482E+01  3.706E-02  1.221E+00
   1    9    6     6     1    4.4397E+01  2.8320E-01   4.4113E+01  0.000E+00  0.000E+00  0.000E+00  1.04445E+03  1.720E+00  1.200E+01  6.000E-02  1.573E+00
   1   10    7     6     2    4.4113E+01  2.8281E-01   4.3831E+01  0.000E+00  0.000E+00  0.000E+00  1.03990E+03  1.713E+00  1.200E+01  6.000E-02  1.571E+00
   1   11    7     6     3    4.3831E+01  2.8241E-01   4.3548E+01  0.000E+00  0.000E+00  0.000E+00  1.03534E+03  1.707E+00  1.200E+01  6.000E-02  1.569E+00
   1   12    7     6     4    4.3548E+01  2.8201E-01   4.3266E+01  0.000E+00  0.000E+00  0.000E+00  1.03079E+03  1.700E+00  1.200E+01  6.000E-02  1.567E+00
   1   13    7     6     5    4.3266E+01  1.1519E-02   4.3255E+01  0.000E+00  0.000E+00  0.000E+00  1.02761E+03  1.697E+00  1.200E+01  2.400E-02  1.600E-01
   1   14    9     7     1    1.5000E+02  1.3366E+00   1.4866E+02  0.000E+00  0.000E+00  0.000E+00  1.03987E+03  2.288E+00  5.529E+01  5.593E-01  7.966E-01
   1   13    8     7     2    1.4866E+02  1.8251E+00   1.4684E+02  0.000E+00  0.000E+00  0.000E+00  1.03478E+03  2.279E+00  5.526E+01  6.148E-01  9.896E-01
   1   13    7     7     3    1.4684E+02  1.4319E+00   1.4541E+02  0.000E+00  0.000E+00  0.000E+00  1.02969E+03  2.271E+00  5.522E+01  5.585E-01  8.547E-01
   1   13    6     8     1    1.8866E+02  9.5322E-01   1.8771E+02  0.000E+00  0.000E+00  0.000E+00  1.02494E+03  3.067E+00  4.447E+01  4.532E-01  7.012E-01
   1   13    5     8     2    1.8771E+02  1.7466E-01   1.8753E+02  0.000E+00  0.000E+00  0.000E+00  1.01869E+03  3.063E+00  4.442E+01  4.527E-01  1.286E-01
   1   13    4     8     3    1.8753E+02 -2.4929E+00   1.9003E+02  0.000E+00  0.000E+00  0.000E+00  1.01245E+03  3.071E+00  4.452E+01  4.537E+00 -1.832E-01
   1   13    3     8     4    1.9003E+02 -3.6560E+00   1.9368E+02  0.000E+00  0.000E+00  0.000E+00  1.00621E+03  3.089E+00  4.479E+01  4.565E+00 -2.670E-01
   1   13    2     8     5    1.9368E+02 -2.5888E+00   1.9627E+02  0.000E+00  0.000E+00  0.000E+00  9.99983E+02  3.108E+00  4.506E+01  4.592E+00 -1.879E-01
   1   13    1     8     6    1.9627E+02 -2.0109E+00   1.9828E+02  0.000E+00  0.000E+00  0.000E+00  9.94997E+02  3.122E+00  4.526E+01  2.768E+00 -2.422E-01
   1    8    6     9     1    7.3009E+00  0.0000E+00   7.3009E+00  0.000E+00  0.000E+00  0.000E+00  1.08063E+03  1.876E+00  4.000E+00  0.000E+00  1.625E+00
   1    8    5     9     2    7.3009E+00  0.0000E+00   7.3009E+00  0.000E+00  0.000E+00  0.000E+00  1.08013E+03  1.876E+00  4.000E+00  0.000E+00  1.625E+00





UNSATURATED ZONE PACKAGE VOLUMETRIC BUDGET FOR  TIME STEP    30 STRESS PERIOD   18
  ------------------------------------------------------------------------------



     CUMULATIVE VOLUMES      L**3       RATES FOR THIS TIME STEP      L**3/T
     ------------------                 ------------------------

           IN:                                      IN:
           ---                                      ---
        INFILTRATION =   708441333.8669          INFILTRATION =          11.7085

          OUT:                                     OUT:
          ----                                     ----
              UZF ET =   566872024.9591                UZF ET =          11.6149
        UZF RECHARGE =      627361.4960          UZF RECHARGE =       0.0000E+00

            IN - OUT =   140941947.4119              IN - OUT =       9.3691E-02

          STORAGE:                                 STORAGE:
          --------                                 --------
      STORAGE CHANGE =   140942479.1011        STORAGE CHANGE =       9.3690E-02

 PERCENT DISCREPANCY IS DIFFERENCE BETWEEN IN-OUT MINUS CHANGE IN STORAGE
 DIVIDED BY THE AVERAGE OF IN AND OUT TIMES 100

 PERCENT DISCREPANCY =          -0.00     PERCENT DISCREPANCY =           0.00






1
  VOLUMETRIC BUDGET FOR AGRICULTURAL FIELDS AT  END OF TIME STEP   30, STRESS PERIOD  18
  ------------------------------------------------------------------------------

     CUMULATIVE VOLUMES      L**3       RATES FOR THIS TIME STEP      L**3/T
     ------------------                 ------------------------

           IN:                                      IN:
           ---                                      ---
               AG WELLS  =   146907200.0000                 AG WELLS  =           0.0000
      DIVERSION SEGMENTS =   364534368.0000        DIVERSION SEGMENTS =           7.3009
           GW IRRIGATION =           0.0000             GW IRRIGATION =           0.0000
           SW IRRIGATION =           0.0000             SW IRRIGATION =           0.0000
        SYSTEM LOSSES GW =           0.0000          SYSTEM LOSSES GW =           0.0000
        SYSTEM LOSSES SW =           0.0000          SYSTEM LOSSES SW =           0.0000

                TOTAL IN =   511441568.0000                  TOTAL IN =           7.3009

          OUT:                                     OUT:
          ----                                     ----
               AG WELLS  =           0.0000                 AG WELLS  =           0.0000
      DIVERSION SEGMENTS =           0.0000        DIVERSION SEGMENTS =           0.0000
           GW IRRIGATION =   146907200.0000             GW IRRIGATION =           0.0000
           SW IRRIGATION =   364541568.0000             SW IRRIGATION =           7.3010
        SYSTEM LOSSES GW =           0.0000          SYSTEM LOSSES GW =           0.0000
        SYSTEM LOSSES SW =           0.0000          SYSTEM LOSSES SW =           0.0000

               TOTAL OUT =   511448768.0000                 TOTAL OUT =           7.3010

                IN - OUT =       -7200.0000                  IN - OUT =      -1.4544E-04

     PERCENT DISCREPANCY =          -0.00         PERCENT DISCREPANCY =          -0.00



1
  VOLUMETRIC BUDGET FOR ENTIRE MODEL AT END OF TIME STEP   30, STRESS PERIOD  18
  ------------------------------------------------------------------------------

     CUMULATIVE VOLUMES      L**3       RATES FOR THIS TIME STEP      L**3/T
     ------------------                 ------------------------

           IN:                                      IN:
           ---                                      ---
             STORAGE     =   262800608.0000               STORAGE     =           0.8837
       CONSTANT HEAD     =           0.0000         CONSTANT HEAD     =           0.0000
     HEAD DEP BOUNDS     =    12800544.0000       HEAD DEP BOUNDS     =           0.2858
      STREAM LEAKAGE     =   539507392.0000        STREAM LEAKAGE     =          12.4167
        UZF RECHARGE     =      627361.5000          UZF RECHARGE     =           0.0000
               GW ET     =           0.0000                 GW ET     =           0.0000
     SURFACE LEAKAGE     =           0.0000       SURFACE LEAKAGE     =           0.0000
           AG WELLS      =           0.0000             AG WELLS      =           0.0000

                TOTAL IN =   815735936.0000                  TOTAL IN =          13.5862

          OUT:                                     OUT:
          ----                                     ----
             STORAGE     =   172281360.0000               STORAGE     =           2.5079
       CONSTANT HEAD     =           0.0000         CONSTANT HEAD     =           0.0000
     HEAD DEP BOUNDS     =    13050075.0000       HEAD DEP BOUNDS     =           0.2935
      STREAM LEAKAGE     =   481485376.0000        STREAM LEAKAGE     =          10.7486
        UZF RECHARGE     =           0.0000          UZF RECHARGE     =           0.0000
               GW ET     =     2015016.3750                 GW ET     =       3.6165E-02
     SURFACE LEAKAGE     =           0.0000       SURFACE LEAKAGE     =           0.0000
           AG WELLS      =   146907200.0000             AG WELLS      =           0.0000

               TOTAL OUT =   815739072.0000                 TOTAL OUT =          13.5861

                IN - OUT =       -3136.0000                  IN - OUT =       4.4823E-05

     PERCENT DISCREPANCY =          -0.00         PERCENT DISCREPANCY =           0.00






         TIME SUMMARY AT END OF TIME STEP   30 IN STRESS PERIOD   18
                    SECONDS     MINUTES      HOURS       DAYS        YEARS
                    -----------------------------------------------------------
   TIME STEP LENGTH  87667.      1461.1      24.352      1.0147     2.77799E-03
 STRESS PERIOD TIME 2.63000E+06  43833.      730.56      30.440     8.33397E-02
         TOTAL TIME 4.47965E+07 7.46608E+05  12443.      518.48      1.4195    
1
1
                            STRESS PERIOD NO.   19, LENGTH =   2630000.    
                            -----------------------------------------------

                              NUMBER OF TIME STEPS =    30

                               MULTIPLIER FOR DELT =     1.000

                            INITIAL TIME STEP SIZE =   87666.66    

 REUSING NON-PARAMETER GHB CELLS FROM LAST STRESS PERIOD

      2 GHB CELLS

 REUSING STREAM SEGMENT DATA FROM LAST STRESS PERIOD



            AREAL INFILTRATION RATE
 READING ON UNIT   19 WITH FORMAT: (10F4.0)            

            1           2           3           4           5           6           7           8           9          10
 ........................................................................................................................
   1   1.2000E-09   0.000       0.000       0.000       0.000       0.000       0.000       0.000       0.000       0.000    
   2   2.1000E-09  2.0000E-09  8.0000E-10  8.5000E-09   0.000       0.000       0.000       0.000       0.000       0.000    
   3   5.0000E-10  1.1000E-09  8.8000E-09  5.5000E-09   0.000       0.000       0.000       0.000       0.000       0.000    
   4   8.5000E-09  1.1000E-09  1.1000E-09  1.1000E-09  2.0000E-09   0.000       0.000       0.000       0.000       0.000    
   5   8.5000E-09  1.1000E-09  1.1000E-09  1.1000E-09  1.1000E-09   0.000       0.000       0.000       0.000       0.000    
   6   8.5000E-09  5.2000E-09  2.1000E-09  1.1000E-09  1.5000E-09   0.000       0.000       0.000       0.000       0.000    
   7   8.5000E-09  5.2000E-09  2.1000E-09  1.2000E-09  2.0000E-09   0.000       0.000       0.000       0.000       0.000    
   8   5.0000E-10  5.2000E-09  2.1000E-09  1.2000E-09  5.0000E-09   0.000       0.000       0.000       0.000       0.000    
   9   5.0000E-10  5.2000E-09  2.1000E-09  1.2000E-09  5.0000E-09   0.000       0.000       0.000       0.000       0.000    
  10   5.0000E-10  5.2000E-09  2.1000E-09  1.2000E-09  5.8000E-09   0.000       0.000       0.000       0.000       0.000    
  11   1.0000E-10  1.1000E-09  1.1000E-09  1.2000E-09  5.0000E-09   0.000       0.000       0.000       0.000       0.000    
  12   1.1000E-09  1.1000E-09  1.1000E-09  1.1000E-09  2.0000E-09   0.000       0.000       0.000       0.000       0.000    
  13   1.1000E-09  2.2000E-09  2.2000E-09  2.1000E-09  1.0000E-09   0.000       0.000       0.000       0.000       0.000    
  14   2.0000E-10  5.5000E-09  5.5000E-09  5.2000E-09  1.0000E-09   0.000       0.000       0.000       0.000       0.000    
  15    0.000      8.8000E-09  8.8000E-09   0.000       0.000       0.000       0.000       0.000       0.000       0.000    

                  ET RATE =  1.500000E-07

 USING ET EXTINCTION DEPTH FROM PREVIOUS STRESS PERIOD. CURRENT PERIOD IS:      19

 USING EXTINCTION WATER CONTENT FROM PREVIOUS STRESS PERIOD. CURRENT PERIOD IS:      19

 USING AIR ENTRY PRESSURE FROM PREVIOUS STRESS PERIOD. CURRENT PERIOD IS:      19

 USING ROOT PRESSURE HEAD FROM PREVIOUS STRESS PERIOD. CURRENT PERIOD IS:      19

 USING ROOT ACTIVITY FROM PREVIOUS STRESS PERIOD. CURRENT PERIOD IS:      19

 PROCESSING AG STRESS PERIOD DATA

 READING AG STRESS PERIOD DATA

 READING IRRIGATION SEGMENT

 READING IRRIGATION WELL

 READING SUPPLEMENTAL WELL

 END PROCESSING AG STRESS PERIOD DATA OPTIONS
 
 SOLVING FOR HEAD 
                                                   Max.-Head-Change                         Max.-Flux-Residual
  Residual-Control   Outer-Iter.   Inner-Iter.     Column Row Layer    Maximum-Head-Change  Column Row Layer    Maximum-Flux-Residual          L2-NORM 
          0                 1           2             1    1     1       0.2833261317E-02       1    1    1         0.1470300492E+00      0.4568419024E+00
          0                 2           2             4    7     1      -0.3556076019E-01       4    7    1        -0.1909869475E+01      0.4695465618E+01
          0                 3           2             4    7     1       0.3678522690E-01       4    7    1         0.2030860181E+01      0.4990045730E+01
          0                 4           2             4    7     1      -0.1463741038E-02       4    7    1        -0.8306367017E-01      0.2057351193E+00
          0                 5           1             3   13     1      -0.1946751310E-04       3   13    1        -0.1312390619E-02      0.3059422605E-02

    ------------------------------------------------
       NWT REQUIRED            5 OUTER ITERATIONS 
       AND A TOTAL OF          9 INNER ITERATIONS.
    ------------------------------------------------

 OUTPUT CONTROL FOR STRESS PERIOD   19   TIME STEP    1
    PRINT BUDGET
    SAVE BUDGET
 UBDSV1 SAVING "         STORAGE" ON UNIT 102 AT TIME STEP  1, STRESS PERIOD  19
 UBDSV2 SAVING "   CONSTANT HEAD" ON UNIT 102 AT TIME STEP  1, STRESS PERIOD  19
 UBDSV1 SAVING "FLOW RIGHT FACE " ON UNIT 102 AT TIME STEP  1, STRESS PERIOD  19
 UBDSV1 SAVING "FLOW FRONT FACE " ON UNIT 102 AT TIME STEP  1, STRESS PERIOD  19

  HEAD DEP BOUNDS   PERIOD   19   STEP     1
 BOUNDARY      1   LAYER   1   ROW    13   COL     1   RATE   -0.293318    
 BOUNDARY      2   LAYER   1   ROW    14   COL     9   RATE    0.285811    



 STREAM LISTING     PERIOD     19   STEP        1

 LAYER ROW COL. STREAM  RCH.  FLOW INTO     FLOW TO   FLOW OUT OF   OVRLND.     DIRECT     STREAM       STREAM     STREAM     STREAM   STREAMBED  STREAMBED
                SEG.NO.  NO.  STRM. RCH.    AQUIFER    STRM. RCH.    RUNOFF     PRECIP       ET          HEAD       DEPTH      WIDTH   CONDCTNC.   GRADIENT

   1    1    1     1     1    4.3652E+01  3.1614E-01   4.3336E+01  0.000E+00  0.000E+00  0.000E+00  1.09441E+03  1.357E+00  1.612E+01  7.255E-02  1.452E+00
   1    2    2     1     2    4.3336E+01  4.8972E-01   4.2846E+01  0.000E+00  0.000E+00  0.000E+00  1.08941E+03  1.355E+00  1.607E+01  1.125E-01  1.452E+00
   1    3    3     1     3    4.2846E+01  4.1777E-01   4.2428E+01  0.000E+00  0.000E+00  0.000E+00  1.08377E+03  1.351E+00  1.600E+01  9.601E-02  1.450E+00
   1    3    4     1     4    4.2428E+01  3.8480E-01   4.2043E+01  0.000E+00  0.000E+00  0.000E+00  1.07876E+03  1.349E+00  1.594E+01  8.849E-02  1.450E+00
   1    4    5     2     1    4.0043E+01  3.5862E-01   3.9685E+01  0.000E+00  0.000E+00  0.000E+00  1.07353E+03  1.598E+00  1.200E+01  7.800E-02  1.533E+00
   1    5    6     2     2    3.9685E+01  2.7540E-01   3.9409E+01  0.000E+00  0.000E+00  0.000E+00  1.06810E+03  1.590E+00  1.200E+01  6.000E-02  1.530E+00
   1    6    6     2     3    3.9409E+01  2.7500E-01   3.9134E+01  0.000E+00  0.000E+00  0.000E+00  1.06338E+03  1.583E+00  1.200E+01  6.000E-02  1.528E+00
   1    7    6     2     4    3.9134E+01  2.7461E-01   3.8860E+01  0.000E+00  0.000E+00  0.000E+00  1.05865E+03  1.577E+00  1.200E+01  6.000E-02  1.526E+00
   1    8    6     2     5    3.8860E+01  2.7421E-01   3.8585E+01  0.000E+00  0.000E+00  0.000E+00  1.05393E+03  1.570E+00  1.200E+01  6.000E-02  1.523E+00
   1    3    5     3     1    2.0000E+00  2.8252E-01   1.7175E+00  0.000E+00  0.000E+00  0.000E+00  1.07555E+03  1.909E+00  9.636E+00  7.227E-02  1.955E+00
   1    3    6     3     2    1.7175E+00  2.4905E-01   1.4684E+00  0.000E+00  0.000E+00  0.000E+00  1.07264E+03  1.727E+00  8.909E+00  6.682E-02  1.864E+00
   1    3    7     3     3    1.4684E+00  1.9718E-01   1.2712E+00  0.000E+00  0.000E+00  0.000E+00  1.06987E+03  1.555E+00  8.218E+00  5.547E-02  1.777E+00
   1    4    8     3     4    1.2712E+00  2.2567E-01   1.0456E+00  0.000E+00  0.000E+00  0.000E+00  1.06682E+03  1.364E+00  7.455E+00  6.709E-02  1.682E+00
   1    5    8     3     5    1.0456E+00  1.5790E-01   8.8768E-01  0.000E+00  0.000E+00  0.000E+00  1.06362E+03  1.164E+00  6.655E+00  4.991E-02  1.582E+00
   1    6    8     3     6    8.8768E-01  5.5980E-02   8.3170E-01  0.000E+00  0.000E+00  0.000E+00  1.06158E+03  1.036E+00  6.145E+00  1.844E-02  1.518E+00
   1    5   10     4     1    1.0000E+01  9.0919E-02   9.9091E+00  0.000E+00  0.000E+00  0.000E+00  1.07836E+03  6.368E-01  1.000E+01  2.500E-02  1.212E+00
   1    5    9     4     2    9.9091E+00  1.8158E-01   9.7275E+00  0.000E+00  0.000E+00  0.000E+00  1.07154E+03  6.315E-01  1.000E+01  5.000E-02  1.211E+00
   1    6    8     4     3    9.7275E+00  1.2689E-01   9.6006E+00  0.000E+00  0.000E+00  0.000E+00  1.06381E+03  6.256E-01  1.000E+01  3.500E-02  1.209E+00
   1    6    8     5     1    1.0432E+01  2.2686E-01   1.0205E+01  0.000E+00  0.000E+00  0.000E+00  1.05868E+03  6.790E-01  1.542E+01  6.166E-02  1.226E+00
   1    7    7     5     2    1.0205E+01  2.7894E-01   9.9265E+00  0.000E+00  0.000E+00  0.000E+00  1.05417E+03  6.732E-01  1.519E+01  7.594E-02  1.224E+00
   1    8    7     5     3    9.9265E+00  1.9221E-01   9.7343E+00  0.000E+00  0.000E+00  0.000E+00  1.04992E+03  6.676E-01  1.497E+01  5.241E-02  1.223E+00
   1    8    6     5     4    9.7343E+00  1.3577E-01   9.5985E+00  0.000E+00  0.000E+00  0.000E+00  1.04691E+03  6.637E-01  1.482E+01  3.706E-02  1.221E+00
   1    9    6     6     1    2.5418E+01  2.5377E-01   2.5164E+01  0.000E+00  0.000E+00  0.000E+00  1.04396E+03  1.230E+00  1.200E+01  6.000E-02  1.410E+00
   1   10    7     6     2    2.5164E+01  2.5333E-01   2.4911E+01  0.000E+00  0.000E+00  0.000E+00  1.03940E+03  1.222E+00  1.200E+01  6.000E-02  1.407E+00
   1   11    7     6     3    2.4911E+01  2.5288E-01   2.4658E+01  0.000E+00  0.000E+00  0.000E+00  1.03485E+03  1.215E+00  1.200E+01  6.000E-02  1.405E+00
   1   12    7     6     4    2.4658E+01  2.5244E-01   2.4406E+01  0.000E+00  0.000E+00  0.000E+00  1.03030E+03  1.207E+00  1.200E+01  6.000E-02  1.402E+00
   1   13    7     6     5    2.4406E+01 -3.0939E-03   2.4409E+01  0.000E+00  0.000E+00  0.000E+00  1.02711E+03  1.204E+00  1.200E+01  2.400E-01 -4.297E-03
   1   14    9     7     1    1.5000E+02  1.3366E+00   1.4866E+02  0.000E+00  0.000E+00  0.000E+00  1.03987E+03  2.288E+00  5.529E+01  5.593E-01  7.966E-01
   1   13    8     7     2    1.4866E+02  1.8251E+00   1.4684E+02  0.000E+00  0.000E+00  0.000E+00  1.03478E+03  2.279E+00  5.526E+01  6.148E-01  9.896E-01
   1   13    7     7     3    1.4684E+02  1.4321E+00   1.4541E+02  0.000E+00  0.000E+00  0.000E+00  1.02969E+03  2.271E+00  5.522E+01  5.585E-01  8.548E-01
   1   13    6     8     1    1.6981E+02  8.6541E-01   1.6895E+02  0.000E+00  0.000E+00  0.000E+00  1.02482E+03  2.948E+00  4.275E+01  4.356E-01  6.622E-01
   1   13    5     8     2    1.6895E+02  1.1699E-01   1.6883E+02  0.000E+00  0.000E+00  0.000E+00  1.01857E+03  2.945E+00  4.270E+01  4.351E-01  8.962E-02
   1   13    4     8     3    1.6883E+02 -2.8774E+00   1.7171E+02  0.000E+00  0.000E+00  0.000E+00  1.01233E+03  2.954E+00  4.283E+01  4.365E+00 -2.197E-01
   1   13    3     8     4    1.7171E+02 -3.9908E+00   1.7570E+02  0.000E+00  0.000E+00  0.000E+00  1.00610E+03  2.976E+00  4.315E+01  4.398E+00 -3.025E-01
   1   13    2     8     5    1.7570E+02 -2.9529E+00   1.7865E+02  0.000E+00  0.000E+00  0.000E+00  9.99873E+02  2.998E+00  4.348E+01  4.430E+00 -2.222E-01
   1   13    1     8     6    1.7865E+02 -2.2163E+00   1.8087E+02  0.000E+00  0.000E+00  0.000E+00  9.94890E+02  3.015E+00  4.371E+01  2.673E+00 -2.764E-01
   1    8    6     9     1    2.2766E+01  0.0000E+00   2.2766E+01  0.000E+00  0.000E+00  0.000E+00  1.08246E+03  3.712E+00  4.000E+00  0.000E+00  2.237E+00
   1    8    5     9     2    2.2766E+01  0.0000E+00   2.2766E+01  0.000E+00  0.000E+00  0.000E+00  1.08196E+03  3.712E+00  4.000E+00  0.000E+00  2.237E+00



 UBDSV3 SAVING "           GW ET" ON UNIT  61 AT TIME STEP  1, STRESS PERIOD  19
 UBDSV3 SAVING "    UZF RECHARGE" ON UNIT  61 AT TIME STEP  1, STRESS PERIOD  19
 UBDSV3 SAVING " SURFACE LEAKAGE" ON UNIT  61 AT TIME STEP  1, STRESS PERIOD  19
 UBDSV3 SAVING "       HORT+DUNN" ON UNIT  61 AT TIME STEP  1, STRESS PERIOD  19
 UBDSV3 SAVING "  STORAGE CHANGE" ON UNIT  61 AT TIME STEP  1, STRESS PERIOD  19


UNSATURATED ZONE PACKAGE VOLUMETRIC BUDGET FOR  TIME STEP     1 STRESS PERIOD   19
  ------------------------------------------------------------------------------



     CUMULATIVE VOLUMES      L**3       RATES FOR THIS TIME STEP      L**3/T
     ------------------                 ------------------------

           IN:                                      IN:
           ---                                      ---
        INFILTRATION =   710823587.8738          INFILTRATION =          27.1740

          OUT:                                     OUT:
          ----                                     ----
              UZF ET =   569205219.3409                UZF ET =          26.6144
        UZF RECHARGE =      627361.4960          UZF RECHARGE =       0.0000E+00

            IN - OUT =   140991007.0369              IN - OUT =           0.5596

          STORAGE:                                 STORAGE:
          --------                                 --------
      STORAGE CHANGE =   140991538.7291        STORAGE CHANGE =           0.5596

 PERCENT DISCREPANCY IS DIFFERENCE BETWEEN IN-OUT MINUS CHANGE IN STORAGE
 DIVIDED BY THE AVERAGE OF IN AND OUT TIMES 100

 PERCENT DISCREPANCY =          -0.00     PERCENT DISCREPANCY =           0.00






 

            AG WELLS      PERIOD   19   STEP   1
 AG WELL      1   LAYER   1   ROW     6   COL     4   RATE     0.00000    
 AG WELL      2   LAYER   1   ROW     6   COL     5   RATE     0.00000    
 AG WELL      3   LAYER   1   ROW     7   COL     4   RATE     0.00000    
 AG WELL      4   LAYER   1   ROW     7   COL     5   RATE     0.00000    
 AG WELL      5   LAYER   1   ROW     8   COL     4   RATE     0.00000    
 AG WELL      6   LAYER   1   ROW     8   COL     5   RATE     0.00000    
 
 

   DIVERSION SEGMENTS     PERIOD   19   STEP   1
 SEGMENT      9   RATE     22.7660    
 
 

        SW IRRIGATION     PERIOD   19   STEP   1
 SEGMENT      9   ROW     6   COL     4   RATE     3.79442    
 SEGMENT      9   ROW     6   COL     5   RATE     3.79442    
 SEGMENT      9   ROW     7   COL     4   RATE     3.79442    
 SEGMENT      9   ROW     7   COL     5   RATE     3.79442    
 SEGMENT      9   ROW     8   COL     4   RATE     3.79442    
 SEGMENT      9   ROW     8   COL     5   RATE     3.79442    
 
 

        GW IRRIGATION     PERIOD   19   STEP   1
 AG WELL      1   ROW     6   COL     4   RATE     0.00000    
 AG WELL      2   ROW     6   COL     5   RATE     0.00000    
 AG WELL      3   ROW     7   COL     4   RATE     0.00000    
 AG WELL      4   ROW     7   COL     5   RATE     0.00000    
 AG WELL      5   ROW     8   COL     4   RATE     0.00000    
 AG WELL      6   ROW     8   COL     5   RATE     0.00000    
 
1
  VOLUMETRIC BUDGET FOR AGRICULTURAL FIELDS AT  END OF TIME STEP    1, STRESS PERIOD  19
  ------------------------------------------------------------------------------

     CUMULATIVE VOLUMES      L**3       RATES FOR THIS TIME STEP      L**3/T
     ------------------                 ------------------------

           IN:                                      IN:
           ---                                      ---
               AG WELLS  =   146907200.0000                 AG WELLS  =           0.0000
      DIVERSION SEGMENTS =   366530176.0000        DIVERSION SEGMENTS =          22.7660
           GW IRRIGATION =           0.0000             GW IRRIGATION =           0.0000
           SW IRRIGATION =           0.0000             SW IRRIGATION =           0.0000
        SYSTEM LOSSES GW =           0.0000          SYSTEM LOSSES GW =           0.0000
        SYSTEM LOSSES SW =           0.0000          SYSTEM LOSSES SW =           0.0000

                TOTAL IN =   513437376.0000                  TOTAL IN =          22.7660

          OUT:                                     OUT:
          ----                                     ----
               AG WELLS  =           0.0000                 AG WELLS  =           0.0000
      DIVERSION SEGMENTS =           0.0000        DIVERSION SEGMENTS =           0.0000
           GW IRRIGATION =   146907200.0000             GW IRRIGATION =           0.0000
           SW IRRIGATION =   366537440.0000             SW IRRIGATION =          22.7665
        SYSTEM LOSSES GW =           0.0000          SYSTEM LOSSES GW =           0.0000
        SYSTEM LOSSES SW =           0.0000          SYSTEM LOSSES SW =           0.0000

               TOTAL OUT =   513444640.0000                 TOTAL OUT =          22.7665

                IN - OUT =       -7264.0000                  IN - OUT =      -4.5586E-04

     PERCENT DISCREPANCY =          -0.00         PERCENT DISCREPANCY =          -0.00



1
  VOLUMETRIC BUDGET FOR ENTIRE MODEL AT END OF TIME STEP    1, STRESS PERIOD  19
  ------------------------------------------------------------------------------

     CUMULATIVE VOLUMES      L**3       RATES FOR THIS TIME STEP      L**3/T
     ------------------                 ------------------------

           IN:                                      IN:
           ---                                      ---
             STORAGE     =   263014592.0000               STORAGE     =           2.4408
       CONSTANT HEAD     =           0.0000         CONSTANT HEAD     =           0.0000
     HEAD DEP BOUNDS     =    12825600.0000       HEAD DEP BOUNDS     =           0.2858
      STREAM LEAKAGE     =   540564352.0000        STREAM LEAKAGE     =          12.0563
        UZF RECHARGE     =      627361.5000          UZF RECHARGE     =           0.0000
               GW ET     =           0.0000                 GW ET     =           0.0000
     SURFACE LEAKAGE     =           0.0000       SURFACE LEAKAGE     =           0.0000
           AG WELLS      =           0.0000             AG WELLS      =           0.0000

                TOTAL IN =   817031936.0000                  TOTAL IN =          14.7829

          OUT:                                     OUT:
          ----                                     ----
             STORAGE     =   172490432.0000               STORAGE     =           2.3849
       CONSTANT HEAD     =           0.0000         CONSTANT HEAD     =           0.0000
     HEAD DEP BOUNDS     =    13075789.0000       HEAD DEP BOUNDS     =           0.2933
      STREAM LEAKAGE     =   482540928.0000        STREAM LEAKAGE     =          12.0405
        UZF RECHARGE     =           0.0000          UZF RECHARGE     =           0.0000
               GW ET     =     2020633.0000                 GW ET     =       6.4067E-02
     SURFACE LEAKAGE     =           0.0000       SURFACE LEAKAGE     =           0.0000
           AG WELLS      =   146907200.0000             AG WELLS      =           0.0000

               TOTAL OUT =   817034944.0000                 TOTAL OUT =          14.7827

                IN - OUT =       -3008.0000                  IN - OUT =       1.8978E-04

     PERCENT DISCREPANCY =          -0.00         PERCENT DISCREPANCY =           0.00






         TIME SUMMARY AT END OF TIME STEP    1 IN STRESS PERIOD   19
                    SECONDS     MINUTES      HOURS       DAYS        YEARS
                    -----------------------------------------------------------
   TIME STEP LENGTH  87667.      1461.1      24.352      1.0147     2.77799E-03
 STRESS PERIOD TIME  87667.      1461.1      24.352      1.0147     2.77799E-03
         TOTAL TIME 4.48841E+07 7.48069E+05  12468.      519.49      1.4223    
1
 
 SOLVING FOR HEAD 
                                                   Max.-Head-Change                         Max.-Flux-Residual
  Residual-Control   Outer-Iter.   Inner-Iter.     Column Row Layer    Maximum-Head-Change  Column Row Layer    Maximum-Flux-Residual          L2-NORM 
          0                 1           2             1    1     1       0.2821817633E-02       1    1    1         0.1464355301E+00      0.4845985869E+00
          0                 2           2             4    7     1      -0.2214049539E-01       4    7    1        -0.1189104842E+01      0.2925839759E+01
          0                 3           2             4    7     1       0.1708808389E-01       4    7    1         0.9434094174E+00      0.2324176261E+01
          0                 4           2             4    7     1       0.2887755342E-02       5    8    1         0.1594351372E+00      0.3943916663E+00
          0                 5           2             4    7     1       0.1219533186E-02       4    7    1         0.6732748447E-01      0.1665358635E+00
          0                 6           2             4    7     1       0.4521794245E-03       5    6    1         0.2496350968E-01      0.6173919557E-01
          0                 7           2             4    7     1       0.1703502598E-03       4    7    1         0.9404446653E-02      0.2325992820E-01
          0                 8           1             4    7     1       0.6412322739E-04       5    6    1         0.3539986878E-02      0.8755488046E-02

    ------------------------------------------------
       NWT REQUIRED            8 OUTER ITERATIONS 
       AND A TOTAL OF         15 INNER ITERATIONS.
    ------------------------------------------------

 NO OUTPUT CONTROL FOR STRESS PERIOD   19   TIME STEP    2
 
 SOLVING FOR HEAD 
                                                   Max.-Head-Change                         Max.-Flux-Residual
  Residual-Control   Outer-Iter.   Inner-Iter.     Column Row Layer    Maximum-Head-Change  Column Row Layer    Maximum-Flux-Residual          L2-NORM 
          0                 1           2             1    1     1       0.2819863353E-02       1    1    1         0.1463339324E+00      0.4898113046E+00
          0                 2           2             4    7     1      -0.4098664054E-01       4    7    1        -0.2201278195E+01      0.5413758360E+01
          0                 3           2             4    7     1       0.4243552966E-01       4    7    1         0.2342805201E+01      0.5756786372E+01
          0                 4           2             4    7     1      -0.1688579298E-02       4    7    1        -0.9582269342E-01      0.2378883721E+00
          0                 5           1             7   13     1       0.4582106022E-04       7   13    1         0.2555465002E-02      0.4093868593E-02

    ------------------------------------------------
       NWT REQUIRED            5 OUTER ITERATIONS 
       AND A TOTAL OF          9 INNER ITERATIONS.
    ------------------------------------------------

 NO OUTPUT CONTROL FOR STRESS PERIOD   19   TIME STEP    3
 
 SOLVING FOR HEAD 
                                                   Max.-Head-Change                         Max.-Flux-Residual
  Residual-Control   Outer-Iter.   Inner-Iter.     Column Row Layer    Maximum-Head-Change  Column Row Layer    Maximum-Flux-Residual          L2-NORM 
          0                 1           2             3   13     1       0.3056719763E-02       3   13    1         0.1739861336E+00      0.5392404955E+00
          0                 2           2             4    7     1      -0.3574875890E-01       4    7    1        -0.1919966359E+01      0.4724947141E+01
          0                 3           2             4    7     1       0.3698465718E-01       4    7    1         0.2041870805E+01      0.5017979343E+01
          0                 4           2             4    7     1      -0.1471676799E-02       4    7    1        -0.8351402021E-01      0.2064915825E+00
          0                 5           1             4    7     1       0.1814637607E-04       4    7    1         0.1058377858E-02      0.2814373326E-02

    ------------------------------------------------
       NWT REQUIRED            5 OUTER ITERATIONS 
       AND A TOTAL OF          9 INNER ITERATIONS.
    ------------------------------------------------

 NO OUTPUT CONTROL FOR STRESS PERIOD   19   TIME STEP    4
 
 SOLVING FOR HEAD 
                                                   Max.-Head-Change                         Max.-Flux-Residual
  Residual-Control   Outer-Iter.   Inner-Iter.     Column Row Layer    Maximum-Head-Change  Column Row Layer    Maximum-Flux-Residual          L2-NORM 
          0                 1           2             4   13     1       0.3545048033E-02       4   13    1         0.2045006914E+00      0.5635873145E+00
          0                 2           2             4    7     1      -0.3538876652E-01       4    7    1        -0.1900632136E+01      0.4677110612E+01
          0                 3           2             4    7     1       0.3661120122E-01       4    7    1         0.2021252975E+01      0.4966868905E+01
          0                 4           2             4    7     1      -0.1456816181E-02       4    7    1        -0.8267072191E-01      0.2043240784E+00
          0                 5           1             4    7     1       0.1796313885E-04       4    7    1         0.1047690703E-02      0.2779498832E-02

    ------------------------------------------------
       NWT REQUIRED            5 OUTER ITERATIONS 
       AND A TOTAL OF          9 INNER ITERATIONS.
    ------------------------------------------------

 NO OUTPUT CONTROL FOR STRESS PERIOD   19   TIME STEP    5
 
 SOLVING FOR HEAD 
                                                   Max.-Head-Change                         Max.-Flux-Residual
  Residual-Control   Outer-Iter.   Inner-Iter.     Column Row Layer    Maximum-Head-Change  Column Row Layer    Maximum-Flux-Residual          L2-NORM 
          0                 1           2             4   13     1       0.4021458307E-02       4   13    1         0.2320247701E+00      0.5877717312E+00
          0                 2           2             4    7     1      -0.2276012808E-01       4    7    1        -0.1222383372E+01      0.3010038326E+01
          0                 3           2             4    7     1       0.1804085662E-01       4    7    1         0.9960108752E+00      0.2453088972E+01
          0                 4           2             4    7     1       0.2612926475E-02       5    8    1         0.1442622490E+00      0.3570583468E+00
          0                 5           2             4    7     1       0.1171749713E-02       4    7    1         0.6468949114E-01      0.1600820314E+00
          0                 6           2             4    7     1       0.4426125960E-03       5    6    1         0.2443535930E-01      0.6045789378E-01
          0                 7           2             4    7     1       0.1704480913E-03       4    7    1         0.9409850030E-02      0.2328296920E-01
          0                 8           1             4    7     1       0.6555877536E-04       5    7    1         0.3619238667E-02      0.8955295507E-02

    ------------------------------------------------
       NWT REQUIRED            8 OUTER ITERATIONS 
       AND A TOTAL OF         15 INNER ITERATIONS.
    ------------------------------------------------

 NO OUTPUT CONTROL FOR STRESS PERIOD   19   TIME STEP    6
 
 SOLVING FOR HEAD 
                                                   Max.-Head-Change                         Max.-Flux-Residual
  Residual-Control   Outer-Iter.   Inner-Iter.     Column Row Layer    Maximum-Head-Change  Column Row Layer    Maximum-Flux-Residual          L2-NORM 
          0                 1           2             4   13     1       0.4309282410E-02       4   13    1         0.2486272411E+00      0.5923812947E+00
          0                 2           2             4    7     1      -0.4098289918E-01       4    7    1        -0.2201077270E+01      0.5415475139E+01
          0                 3           2             4    7     1       0.4243656882E-01       4    7    1         0.2342863139E+01      0.5757093878E+01
          0                 4           2             4    7     1      -0.1688620648E-02       4    7    1        -0.9582506317E-01      0.2382507026E+00
          0                 5           1             7   13     1       0.4513005528E-04       7   13    1         0.2516340566E-02      0.4100145997E-02

    ------------------------------------------------
       NWT REQUIRED            5 OUTER ITERATIONS 
       AND A TOTAL OF          9 INNER ITERATIONS.
    ------------------------------------------------

 NO OUTPUT CONTROL FOR STRESS PERIOD   19   TIME STEP    7
 
 SOLVING FOR HEAD 
                                                   Max.-Head-Change                         Max.-Flux-Residual
  Residual-Control   Outer-Iter.   Inner-Iter.     Column Row Layer    Maximum-Head-Change  Column Row Layer    Maximum-Flux-Residual          L2-NORM 
          0                 1           2             4   13     1       0.4797524347E-02       4   13    1         0.2768349301E+00      0.6321628460E+00
          0                 2           2             4    7     1      -0.3566663540E-01       4    7    1        -0.1915555659E+01      0.4715151153E+01
          0                 3           2             4    7     1       0.3690406085E-01       4    7    1         0.2037421685E+01      0.5006686943E+01
          0                 4           2             4    7     1      -0.1468469697E-02       4    7    1        -0.8333204491E-01      0.2059806773E+00
          0                 5           1             4    7     1       0.1810683103E-04       4    7    1         0.1056071657E-02      0.2800931400E-02

    ------------------------------------------------
       NWT REQUIRED            5 OUTER ITERATIONS 
       AND A TOTAL OF          9 INNER ITERATIONS.
    ------------------------------------------------

 NO OUTPUT CONTROL FOR STRESS PERIOD   19   TIME STEP    8
 
 SOLVING FOR HEAD 
                                                   Max.-Head-Change                         Max.-Flux-Residual
  Residual-Control   Outer-Iter.   Inner-Iter.     Column Row Layer    Maximum-Head-Change  Column Row Layer    Maximum-Flux-Residual          L2-NORM 
          0                 1           2             4   13     1       0.5159309460E-02       4   13    1         0.2977126555E+00      0.6547903392E+00
          0                 2           2             4    7     1      -0.3535622023E-01       4    7    1        -0.1898884069E+01      0.4674562246E+01
          0                 3           2             4    7     1       0.3658216262E-01       4    7    1         0.2019650272E+01      0.4963047213E+01
          0                 4           2             4    7     1      -0.1455660673E-02       4    7    1        -0.8260516910E-01      0.2041617704E+00
          0                 5           1             4    7     1       0.1794889101E-04       4    7    1         0.1046859956E-02      0.2775968344E-02

    ------------------------------------------------
       NWT REQUIRED            5 OUTER ITERATIONS 
       AND A TOTAL OF          9 INNER ITERATIONS.
    ------------------------------------------------

 NO OUTPUT CONTROL FOR STRESS PERIOD   19   TIME STEP    9
 
 SOLVING FOR HEAD 
                                                   Max.-Head-Change                         Max.-Flux-Residual
  Residual-Control   Outer-Iter.   Inner-Iter.     Column Row Layer    Maximum-Head-Change  Column Row Layer    Maximum-Flux-Residual          L2-NORM 
          0                 1           2             4   13     1       0.5479203790E-02       4   13    1         0.3161641386E+00      0.6758308544E+00
          0                 2           2             4    7     1      -0.3514216775E-01       4    7    1        -0.1887387968E+01      0.4646661491E+01
          0                 3           2             4    7     1       0.3636053148E-01       4    7    1         0.2007414462E+01      0.4933006080E+01
          0                 4           2             4    7     1      -0.1446841494E-02       4    7    1        -0.8210470736E-01      0.2029146526E+00
          0                 5           1             4    7     1       0.1784014678E-04       4    7    1         0.1040517573E-02      0.2757997765E-02

    ------------------------------------------------
       NWT REQUIRED            5 OUTER ITERATIONS 
       AND A TOTAL OF          9 INNER ITERATIONS.
    ------------------------------------------------

 NO OUTPUT CONTROL FOR STRESS PERIOD   19   TIME STEP   10
 
 SOLVING FOR HEAD 
                                                   Max.-Head-Change                         Max.-Flux-Residual
  Residual-Control   Outer-Iter.   Inner-Iter.     Column Row Layer    Maximum-Head-Change  Column Row Layer    Maximum-Flux-Residual          L2-NORM 
          0                 1           2             4   13     1       0.5763567359E-02       4   13    1         0.3325582299E+00      0.6953686812E+00
          0                 2           2             4    7     1      -0.3500835664E-01       4    7    1        -0.1880201303E+01      0.4629333068E+01
          0                 3           2             4    7     1       0.3622243871E-01       4    7    1         0.1999790676E+01      0.4914295451E+01
          0                 4           2             4    7     1      -0.1441346488E-02       4    7    1        -0.8179288393E-01      0.2021402755E+00
          0                 5           1             4    7     1       0.1777239169E-04       4    7    1         0.1036565835E-02      0.2740470942E-02

    ------------------------------------------------
       NWT REQUIRED            5 OUTER ITERATIONS 
       AND A TOTAL OF          9 INNER ITERATIONS.
    ------------------------------------------------

 NO OUTPUT CONTROL FOR STRESS PERIOD   19   TIME STEP   11
 
 SOLVING FOR HEAD 
                                                   Max.-Head-Change                         Max.-Flux-Residual
  Residual-Control   Outer-Iter.   Inner-Iter.     Column Row Layer    Maximum-Head-Change  Column Row Layer    Maximum-Flux-Residual          L2-NORM 
          0                 1           2             4   13     1       0.6017874671E-02       4   13    1         0.3472122333E+00      0.7135120670E+00
          0                 2           2             4    7     1      -0.3492486429E-01       4    7    1        -0.1875717172E+01      0.4618622351E+01
          0                 3           2             4    7     1       0.3613671194E-01       4    7    1         0.1995057943E+01      0.4902686417E+01
          0                 4           2             4    7     1      -0.1437935237E-02       4    7    1        -0.8159930858E-01      0.2016609391E+00
          0                 5           1             4    7     1       0.1773032945E-04       4    7    1         0.1034112641E-02      0.2741212857E-02

    ------------------------------------------------
       NWT REQUIRED            5 OUTER ITERATIONS 
       AND A TOTAL OF          9 INNER ITERATIONS.
    ------------------------------------------------

 NO OUTPUT CONTROL FOR STRESS PERIOD   19   TIME STEP   12
 
 SOLVING FOR HEAD 
                                                   Max.-Head-Change                         Max.-Flux-Residual
  Residual-Control   Outer-Iter.   Inner-Iter.     Column Row Layer    Maximum-Head-Change  Column Row Layer    Maximum-Flux-Residual          L2-NORM 
          0                 1           2             4   13     1       0.6246225384E-02       4   13    1         0.3603640245E+00      0.7303709029E+00
          0                 2           2             4    7     1      -0.3487269779E-01       4    7    1        -0.1872915442E+01      0.4612027151E+01
          0                 3           2             4    7     1       0.3608358109E-01       4    7    1         0.1992124780E+01      0.4895497954E+01
          0                 4           2             4    7     1      -0.1435821046E-02       4    7    1        -0.8147933814E-01      0.2013652699E+00
          0                 5           1             4    7     1       0.1770426091E-04       4    7    1         0.1032592259E-02      0.2737267309E-02

    ------------------------------------------------
       NWT REQUIRED            5 OUTER ITERATIONS 
       AND A TOTAL OF          9 INNER ITERATIONS.
    ------------------------------------------------

 NO OUTPUT CONTROL FOR STRESS PERIOD   19   TIME STEP   13
 
 SOLVING FOR HEAD 
                                                   Max.-Head-Change                         Max.-Flux-Residual
  Residual-Control   Outer-Iter.   Inner-Iter.     Column Row Layer    Maximum-Head-Change  Column Row Layer    Maximum-Flux-Residual          L2-NORM 
          0                 1           2             4   13     1       0.6500589986E-02       4   13    1         0.3750094361E+00      0.7407112092E+00
          0                 2           2             4    7     1      -0.3484004225E-01       4    7    1        -0.1871161580E+01      0.4606428041E+01
          0                 3           2             4    7     1       0.3605074791E-01       4    7    1         0.1990312220E+01      0.4891032148E+01
          0                 4           2             4    7     1      -0.1434514545E-02       4    7    1        -0.8140520195E-01      0.2011806235E+00
          0                 5           1             4    7     1       0.1768815161E-04       4    7    1         0.1031652757E-02      0.2734117567E-02

    ------------------------------------------------
       NWT REQUIRED            5 OUTER ITERATIONS 
       AND A TOTAL OF          9 INNER ITERATIONS.
    ------------------------------------------------

 NO OUTPUT CONTROL FOR STRESS PERIOD   19   TIME STEP   14
 
 SOLVING FOR HEAD 
                                                   Max.-Head-Change                         Max.-Flux-Residual
  Residual-Control   Outer-Iter.   Inner-Iter.     Column Row Layer    Maximum-Head-Change  Column Row Layer    Maximum-Flux-Residual          L2-NORM 
          0                 1           2             4   13     1       0.6686299780E-02       4   13    1         0.3856945171E+00      0.7555038257E+00
          0                 2           2             4    7     1      -0.3481935754E-01       4    7    1        -0.1870050636E+01      0.4603952695E+01
          0                 3           2             4    7     1       0.3603036396E-01       4    7    1         0.1989186964E+01      0.4888283491E+01
          0                 4           2             4    7     1      -0.1433703423E-02       4    7    1        -0.8135917741E-01      0.2010685008E+00
          0                 5           1             4    7     1       0.1767814980E-04       4    7    1         0.1031069459E-02      0.2733420164E-02

    ------------------------------------------------
       NWT REQUIRED            5 OUTER ITERATIONS 
       AND A TOTAL OF          9 INNER ITERATIONS.
    ------------------------------------------------

 NO OUTPUT CONTROL FOR STRESS PERIOD   19   TIME STEP   15
 
 SOLVING FOR HEAD 
                                                   Max.-Head-Change                         Max.-Flux-Residual
  Residual-Control   Outer-Iter.   Inner-Iter.     Column Row Layer    Maximum-Head-Change  Column Row Layer    Maximum-Flux-Residual          L2-NORM 
          0                 1           2             4   13     1       0.6854418964E-02       4   13    1         0.3953625896E+00      0.7692279961E+00
          0                 2           2             4    7     1      -0.3480610209E-01       4    7    1        -0.1869338706E+01      0.4602440699E+01
          0                 3           2             4    7     1       0.3601770215E-01       4    7    1         0.1988488035E+01      0.4886581377E+01
          0                 4           2             4    7     1      -0.1433199583E-02       4    7    1        -0.8133059026E-01      0.2009994392E+00
          0                 5           1             4    7     1       0.1767193724E-04       4    7    1         0.1030707170E-02      0.2732613925E-02

    ------------------------------------------------
       NWT REQUIRED            5 OUTER ITERATIONS 
       AND A TOTAL OF          9 INNER ITERATIONS.
    ------------------------------------------------

 NO OUTPUT CONTROL FOR STRESS PERIOD   19   TIME STEP   16
 
 SOLVING FOR HEAD 
                                                   Max.-Head-Change                         Max.-Flux-Residual
  Residual-Control   Outer-Iter.   Inner-Iter.     Column Row Layer    Maximum-Head-Change  Column Row Layer    Maximum-Flux-Residual          L2-NORM 
          0                 1           2             4   13     1       0.7006632750E-02       4   13    1         0.4041112292E+00      0.7819443143E+00
          0                 2           2             4    7     1      -0.3480752078E-01       4    7    1        -0.1869414824E+01      0.4602854663E+01
          0                 3           2             4    7     1       0.3602032951E-01       4    7    1         0.1988633195E+01      0.4886952974E+01
          0                 4           2             4    7     1      -0.1433304131E-02       4    7    1        -0.8133652752E-01      0.2010155479E+00
          0                 5           1             4    7     1       0.1767322675E-04       4    7    1         0.1030782441E-02      0.2732367991E-02

    ------------------------------------------------
       NWT REQUIRED            5 OUTER ITERATIONS 
       AND A TOTAL OF          9 INNER ITERATIONS.
    ------------------------------------------------

 NO OUTPUT CONTROL FOR STRESS PERIOD   19   TIME STEP   17
 
 SOLVING FOR HEAD 
                                                   Max.-Head-Change                         Max.-Flux-Residual
  Residual-Control   Outer-Iter.   Inner-Iter.     Column Row Layer    Maximum-Head-Change  Column Row Layer    Maximum-Flux-Residual          L2-NORM 
          0                 1           2             4   13     1       0.7144823203E-02       4   13    1         0.4120494044E+00      0.7937517007E+00
          0                 2           2             4    7     1      -0.3478779571E-01       4    7    1        -0.1868355475E+01      0.4600457603E+01
          0                 3           2             4    7     1       0.3600091136E-01       4    7    1         0.1987561261E+01      0.4884338679E+01
          0                 4           2             4    7     1      -0.1432531442E-02       4    7    1        -0.8129268390E-01      0.2008966885E+00
          0                 5           1             4    7     1       0.1766369877E-04       4    7    1         0.1030226782E-02      0.2723567602E-02

    ------------------------------------------------
       NWT REQUIRED            5 OUTER ITERATIONS 
       AND A TOTAL OF          9 INNER ITERATIONS.
    ------------------------------------------------

 NO OUTPUT CONTROL FOR STRESS PERIOD   19   TIME STEP   18
 
 SOLVING FOR HEAD 
                                                   Max.-Head-Change                         Max.-Flux-Residual
  Residual-Control   Outer-Iter.   Inner-Iter.     Column Row Layer    Maximum-Head-Change  Column Row Layer    Maximum-Flux-Residual          L2-NORM 
          0                 1           2             4   13     1       0.7270130534E-02       4   13    1         0.4192435873E+00      0.8046733450E+00
          0                 2           2             4    7     1      -0.3478519705E-01       4    7    1        -0.1868215893E+01      0.4600310089E+01
          0                 3           2             4    7     1       0.3599930946E-01       4    7    1         0.1987472931E+01      0.4884134454E+01
          0                 4           2             4    7     1      -0.1432467699E-02       4    7    1        -0.8128907110E-01      0.2008890356E+00
          0                 5           1             4    7     1       0.1766291287E-04       4    7    1         0.1030181009E-02      0.2723428016E-02

    ------------------------------------------------
       NWT REQUIRED            5 OUTER ITERATIONS 
       AND A TOTAL OF          9 INNER ITERATIONS.
    ------------------------------------------------

 NO OUTPUT CONTROL FOR STRESS PERIOD   19   TIME STEP   19
 
 SOLVING FOR HEAD 
                                                   Max.-Head-Change                         Max.-Flux-Residual
  Residual-Control   Outer-Iter.   Inner-Iter.     Column Row Layer    Maximum-Head-Change  Column Row Layer    Maximum-Flux-Residual          L2-NORM 
          0                 1           2             4   13     1       0.7383842308E-02       4   13    1         0.4257681665E+00      0.8147829196E+00
          0                 2           2             4    7     1      -0.3478979897E-01       4    7    1        -0.1868462964E+01      0.4601104518E+01
          0                 3           2             4    7     1       0.3600521761E-01       4    7    1         0.1987799216E+01      0.4884948441E+01
          0                 4           2             4    7     1      -0.1432702796E-02       4    7    1        -0.8130241660E-01      0.2009231750E+00
          0                 5           1             4    7     1       0.1766581159E-04       4    7    1         0.1030350118E-02      0.2724072149E-02

    ------------------------------------------------
       NWT REQUIRED            5 OUTER ITERATIONS 
       AND A TOTAL OF          9 INNER ITERATIONS.
    ------------------------------------------------

 NO OUTPUT CONTROL FOR STRESS PERIOD   19   TIME STEP   20
 
 SOLVING FOR HEAD 
                                                   Max.-Head-Change                         Max.-Flux-Residual
  Residual-Control   Outer-Iter.   Inner-Iter.     Column Row Layer    Maximum-Head-Change  Column Row Layer    Maximum-Flux-Residual          L2-NORM 
          0                 1           2             4   13     1       0.7487582205E-02       4   13    1         0.4317173060E+00      0.8241694575E+00
          0                 2           2             4    7     1      -0.3479569752E-01       4    7    1        -0.1868779718E+01      0.4602058167E+01
          0                 3           2             4    7     1       0.3601246427E-01       4    7    1         0.1988199401E+01      0.4885943240E+01
          0                 4           2             4    7     1      -0.1432991157E-02       4    7    1        -0.8131878474E-01      0.2009647231E+00
          0                 5           1             4    7     1       0.1766936717E-04       4    7    1         0.1030557562E-02      0.2724767221E-02

    ------------------------------------------------
       NWT REQUIRED            5 OUTER ITERATIONS 
       AND A TOTAL OF          9 INNER ITERATIONS.
    ------------------------------------------------

 NO OUTPUT CONTROL FOR STRESS PERIOD   19   TIME STEP   21
 
 SOLVING FOR HEAD 
                                                   Max.-Head-Change                         Max.-Flux-Residual
  Residual-Control   Outer-Iter.   Inner-Iter.     Column Row Layer    Maximum-Head-Change  Column Row Layer    Maximum-Flux-Residual          L2-NORM 
          0                 1           2             4   13     1       0.7582116420E-02       4   13    1         0.4371353178E+00      0.8328628820E+00
          0                 2           2             4    7     1      -0.3480215161E-01       4    7    1        -0.1869126289E+01      0.4603074459E+01
          0                 3           2             4    7     1       0.3602027780E-01       4    7    1         0.1988630880E+01      0.4887014369E+01
          0                 4           2             4    7     1      -0.1433302073E-02       4    7    1        -0.8133643279E-01      0.2010091260E+00
          0                 5           1             4    7     1       0.1767320054E-04       4    7    1         0.1030781198E-02      0.2725129537E-02

    ------------------------------------------------
       NWT REQUIRED            5 OUTER ITERATIONS 
       AND A TOTAL OF          9 INNER ITERATIONS.
    ------------------------------------------------

 NO OUTPUT CONTROL FOR STRESS PERIOD   19   TIME STEP   22
 
 SOLVING FOR HEAD 
                                                   Max.-Head-Change                         Max.-Flux-Residual
  Residual-Control   Outer-Iter.   Inner-Iter.     Column Row Layer    Maximum-Head-Change  Column Row Layer    Maximum-Flux-Residual          L2-NORM 
          0                 1           2             4   13     1       0.7668410388E-02       4   13    1         0.4420779738E+00      0.8409395973E+00
          0                 2           2             4    7     1      -0.3480929630E-01       4    7    1        -0.1869510012E+01      0.4604169724E+01
          0                 3           2             4    7     1       0.3602877320E-01       4    7    1         0.1989100006E+01      0.4888177327E+01
          0                 4           2             4    7     1      -0.1433640123E-02       4    7    1        -0.8135562074E-01      0.2010577008E+00
          0                 5           1             4    7     1       0.1767736906E-04       4    7    1         0.1031024369E-02      0.2726734842E-02

    ------------------------------------------------
       NWT REQUIRED            5 OUTER ITERATIONS 
       AND A TOTAL OF          9 INNER ITERATIONS.
    ------------------------------------------------

 NO OUTPUT CONTROL FOR STRESS PERIOD   19   TIME STEP   23
 
 SOLVING FOR HEAD 
                                                   Max.-Head-Change                         Max.-Flux-Residual
  Residual-Control   Outer-Iter.   Inner-Iter.     Column Row Layer    Maximum-Head-Change  Column Row Layer    Maximum-Flux-Residual          L2-NORM 
          0                 1           2             4   13     1       0.7747245700E-02       4   13    1         0.4465906600E+00      0.8484266701E+00
          0                 2           2             4    7     1      -0.3478467922E-01       4    7    1        -0.1868187869E+01      0.4601061821E+01
          0                 3           2             4    7     1       0.3600422414E-01       4    7    1         0.1987744793E+01      0.4884856880E+01
          0                 4           2             4    7     1      -0.1432663265E-02       4    7    1        -0.8130019066E-01      0.2009216843E+00
          0                 5           1             4    7     1       0.1766532433E-04       4    7    1         0.1030321930E-02      0.2724410290E-02

    ------------------------------------------------
       NWT REQUIRED            5 OUTER ITERATIONS 
       AND A TOTAL OF          9 INNER ITERATIONS.
    ------------------------------------------------

 NO OUTPUT CONTROL FOR STRESS PERIOD   19   TIME STEP   24
 
 SOLVING FOR HEAD 
                                                   Max.-Head-Change                         Max.-Flux-Residual
  Residual-Control   Outer-Iter.   Inner-Iter.     Column Row Layer    Maximum-Head-Change  Column Row Layer    Maximum-Flux-Residual          L2-NORM 
          0                 1           2             4   13     1       0.7818673893E-02       4   13    1         0.4506763864E+00      0.8553210961E+00
          0                 2           2             4    7     1      -0.3479072160E-01       4    7    1        -0.1868512350E+01      0.4601996160E+01
          0                 3           2             4    7     1       0.3601157782E-01       4    7    1         0.1988150884E+01      0.4885863917E+01
          0                 4           2             4    7     1      -0.1432955883E-02       4    7    1        -0.8131680029E-01      0.2009634242E+00
          0                 5           1             4    7     1       0.1766893210E-04       4    7    1         0.1030532409E-02      0.2725301638E-02

    ------------------------------------------------
       NWT REQUIRED            5 OUTER ITERATIONS 
       AND A TOTAL OF          9 INNER ITERATIONS.
    ------------------------------------------------

 NO OUTPUT CONTROL FOR STRESS PERIOD   19   TIME STEP   25
 
 SOLVING FOR HEAD 
                                                   Max.-Head-Change                         Max.-Flux-Residual
  Residual-Control   Outer-Iter.   Inner-Iter.     Column Row Layer    Maximum-Head-Change  Column Row Layer    Maximum-Flux-Residual          L2-NORM 
          0                 1           2             4   13     1       0.7884058986E-02       4   13    1         0.4544140622E+00      0.8617165195E+00
          0                 2           2             4    7     1      -0.3479726335E-01       4    7    1        -0.1868863644E+01      0.4602988822E+01
          0                 3           2             4    7     1       0.3601944055E-01       4    7    1         0.1988585077E+01      0.4886939564E+01
          0                 4           2             4    7     1      -0.1433268758E-02       4    7    1        -0.8133455940E-01      0.2010081737E+00
          0                 5           1             4    7     1       0.1767279012E-04       4    7    1         0.1030757473E-02      0.2726156675E-02

    ------------------------------------------------
       NWT REQUIRED            5 OUTER ITERATIONS 
       AND A TOTAL OF          9 INNER ITERATIONS.
    ------------------------------------------------

 NO OUTPUT CONTROL FOR STRESS PERIOD   19   TIME STEP   26
 
 SOLVING FOR HEAD 
                                                   Max.-Head-Change                         Max.-Flux-Residual
  Residual-Control   Outer-Iter.   Inner-Iter.     Column Row Layer    Maximum-Head-Change  Column Row Layer    Maximum-Flux-Residual          L2-NORM 
          0                 1           2             4   13     1       0.7943899921E-02       4   13    1         0.4578325770E+00      0.8676517556E+00
          0                 2           2             4    7     1      -0.3480441110E-01       4    7    1        -0.1869247426E+01      0.4604057526E+01
          0                 3           2             4    7     1       0.3602794913E-01       4    7    1         0.1989054923E+01      0.4888102738E+01
          0                 4           2             4    7     1      -0.1433607333E-02       4    7    1        -0.8135377676E-01      0.2010564294E+00
          0                 5           1             4    7     1       0.1767696491E-04       4    7    1         0.1031001022E-02      0.2726549500E-02

    ------------------------------------------------
       NWT REQUIRED            5 OUTER ITERATIONS 
       AND A TOTAL OF          9 INNER ITERATIONS.
    ------------------------------------------------

 NO OUTPUT CONTROL FOR STRESS PERIOD   19   TIME STEP   27
 
 SOLVING FOR HEAD 
                                                   Max.-Head-Change                         Max.-Flux-Residual
  Residual-Control   Outer-Iter.   Inner-Iter.     Column Row Layer    Maximum-Head-Change  Column Row Layer    Maximum-Flux-Residual          L2-NORM 
          0                 1           2             4   13     1       0.7998908626E-02       4   13    1         0.4609729671E+00      0.8731619408E+00
          0                 2           2             4    7     1      -0.3481236078E-01       4    7    1        -0.1869674351E+01      0.4605221999E+01
          0                 3           2             4    7     1       0.3603725514E-01       4    7    1         0.1989568797E+01      0.4889373428E+01
          0                 4           2             4    7     1      -0.1433977638E-02       4    7    1        -0.8137479489E-01      0.2011090491E+00
          0                 5           1             4    7     1       0.1768153086E-04       4    7    1         0.1031267386E-02      0.2727158132E-02

    ------------------------------------------------
       NWT REQUIRED            5 OUTER ITERATIONS 
       AND A TOTAL OF          9 INNER ITERATIONS.
    ------------------------------------------------

 NO OUTPUT CONTROL FOR STRESS PERIOD   19   TIME STEP   28
 
 SOLVING FOR HEAD 
                                                   Max.-Head-Change                         Max.-Flux-Residual
  Residual-Control   Outer-Iter.   Inner-Iter.     Column Row Layer    Maximum-Head-Change  Column Row Layer    Maximum-Flux-Residual          L2-NORM 
          0                 1           2             4   13     1       0.7535372518E-02       4   13    1         0.4342249043E+00      0.8310181335E+00
          0                 2           2             4    7     1      -0.3479050159E-01       4    7    1        -0.1868500382E+01      0.4601802266E+01
          0                 3           2             4    7     1       0.3601552392E-01       4    7    1         0.1988369153E+01      0.4886394283E+01
          0                 4           2             4    7     1      -0.1433112906E-02       4    7    1        -0.8132572778E-01      0.2011062445E+00
          0                 5           1             4    7     1       0.1767086862E-04       4    7    1         0.1030645558E-02      0.2793984469E-02

    ------------------------------------------------
       NWT REQUIRED            5 OUTER ITERATIONS 
       AND A TOTAL OF          9 INNER ITERATIONS.
    ------------------------------------------------

 NO OUTPUT CONTROL FOR STRESS PERIOD   19   TIME STEP   29
 
 SOLVING FOR HEAD 
                                                   Max.-Head-Change                         Max.-Flux-Residual
  Residual-Control   Outer-Iter.   Inner-Iter.     Column Row Layer    Maximum-Head-Change  Column Row Layer    Maximum-Flux-Residual          L2-NORM 
          0                 1           2             4   13     1       0.6939571054E-02       4   13    1         0.3998752043E+00      0.7833574231E+00
          0                 2           2             4    7     1      -0.3479719555E-01       4    7    1        -0.1868859895E+01      0.4603231803E+01
          0                 3           2             4    7     1       0.3602353092E-01       4    7    1         0.1988811312E+01      0.4887466398E+01
          0                 4           2             4    7     1      -0.1433431522E-02       4    7    1        -0.8134381273E-01      0.2018571173E+00
          0                 5           1             4    7     1       0.1767479675E-04       4    7    1         0.1030874747E-02      0.2747005703E-02

    ------------------------------------------------
       NWT REQUIRED            5 OUTER ITERATIONS 
       AND A TOTAL OF          9 INNER ITERATIONS.
    ------------------------------------------------

 NO OUTPUT CONTROL FOR STRESS PERIOD   19   TIME STEP   30



 STREAM LISTING     PERIOD     19   STEP       30

 LAYER ROW COL. STREAM  RCH.  FLOW INTO     FLOW TO   FLOW OUT OF   OVRLND.     DIRECT     STREAM       STREAM     STREAM     STREAM   STREAMBED  STREAMBED
                SEG.NO.  NO.  STRM. RCH.    AQUIFER    STRM. RCH.    RUNOFF     PRECIP       ET          HEAD       DEPTH      WIDTH   CONDCTNC.   GRADIENT

   1    1    1     1     1    4.0501E+01  3.0566E-01   4.0195E+01  0.000E+00  0.000E+00  0.000E+00  1.09438E+03  1.335E+00  1.567E+01  7.051E-02  1.445E+00
   1    2    2     1     2    4.0195E+01  4.7341E-01   3.9722E+01  0.000E+00  0.000E+00  0.000E+00  1.08939E+03  1.332E+00  1.561E+01  1.093E-01  1.444E+00
   1    3    3     1     3    3.9722E+01  4.0378E-01   3.9318E+01  0.000E+00  0.000E+00  0.000E+00  1.08375E+03  1.329E+00  1.555E+01  9.328E-02  1.443E+00
   1    3    4     1     4    3.9318E+01  3.7185E-01   3.8946E+01  0.000E+00  0.000E+00  0.000E+00  1.07873E+03  1.326E+00  1.549E+01  8.596E-02  1.442E+00
   1    4    5     2     1    3.6946E+01  3.5272E-01   3.6593E+01  0.000E+00  0.000E+00  0.000E+00  1.07346E+03  1.522E+00  1.200E+01  7.800E-02  1.507E+00
   1    5    6     2     2    3.6593E+01  2.7086E-01   3.6322E+01  0.000E+00  0.000E+00  0.000E+00  1.06802E+03  1.514E+00  1.200E+01  6.000E-02  1.505E+00
   1    6    6     2     3    3.6322E+01  2.7045E-01   3.6052E+01  0.000E+00  0.000E+00  0.000E+00  1.06330E+03  1.508E+00  1.200E+01  6.000E-02  1.503E+00
   1    7    6     2     4    3.6052E+01  2.7005E-01   3.5782E+01  0.000E+00  0.000E+00  0.000E+00  1.05858E+03  1.501E+00  1.200E+01  6.000E-02  1.500E+00
   1    8    6     2     5    3.5782E+01  2.6964E-01   3.5512E+01  0.000E+00  0.000E+00  0.000E+00  1.05385E+03  1.494E+00  1.200E+01  6.000E-02  1.498E+00
   1    3    5     3     1    2.0000E+00  2.8252E-01   1.7175E+00  0.000E+00  0.000E+00  0.000E+00  1.07555E+03  1.909E+00  9.636E+00  7.227E-02  1.955E+00
   1    3    6     3     2    1.7175E+00  2.4905E-01   1.4684E+00  0.000E+00  0.000E+00  0.000E+00  1.07264E+03  1.727E+00  8.909E+00  6.682E-02  1.864E+00
   1    3    7     3     3    1.4684E+00  1.9718E-01   1.2712E+00  0.000E+00  0.000E+00  0.000E+00  1.06987E+03  1.555E+00  8.218E+00  5.547E-02  1.777E+00
   1    4    8     3     4    1.2712E+00  2.2567E-01   1.0456E+00  0.000E+00  0.000E+00  0.000E+00  1.06682E+03  1.364E+00  7.455E+00  6.709E-02  1.682E+00
   1    5    8     3     5    1.0456E+00  1.5790E-01   8.8768E-01  0.000E+00  0.000E+00  0.000E+00  1.06362E+03  1.164E+00  6.655E+00  4.991E-02  1.582E+00
   1    6    8     3     6    8.8768E-01  5.5980E-02   8.3170E-01  0.000E+00  0.000E+00  0.000E+00  1.06158E+03  1.036E+00  6.145E+00  1.844E-02  1.518E+00
   1    5   10     4     1    1.0000E+01  9.0919E-02   9.9091E+00  0.000E+00  0.000E+00  0.000E+00  1.07836E+03  6.368E-01  1.000E+01  2.500E-02  1.212E+00
   1    5    9     4     2    9.9091E+00  1.8158E-01   9.7275E+00  0.000E+00  0.000E+00  0.000E+00  1.07154E+03  6.315E-01  1.000E+01  5.000E-02  1.211E+00
   1    6    8     4     3    9.7275E+00  1.2689E-01   9.6006E+00  0.000E+00  0.000E+00  0.000E+00  1.06381E+03  6.256E-01  1.000E+01  3.500E-02  1.209E+00
   1    6    8     5     1    1.0432E+01  2.2686E-01   1.0205E+01  0.000E+00  0.000E+00  0.000E+00  1.05868E+03  6.790E-01  1.542E+01  6.166E-02  1.226E+00
   1    7    7     5     2    1.0205E+01  2.7894E-01   9.9265E+00  0.000E+00  0.000E+00  0.000E+00  1.05417E+03  6.732E-01  1.519E+01  7.594E-02  1.224E+00
   1    8    7     5     3    9.9265E+00  1.9221E-01   9.7343E+00  0.000E+00  0.000E+00  0.000E+00  1.04992E+03  6.676E-01  1.497E+01  5.241E-02  1.223E+00
   1    8    6     5     4    9.7343E+00  1.3577E-01   9.5985E+00  0.000E+00  0.000E+00  0.000E+00  1.04691E+03  6.637E-01  1.482E+01  3.706E-02  1.221E+00
   1    9    6     6     1    2.2815E+01  2.4912E-01   2.2566E+01  0.000E+00  0.000E+00  0.000E+00  1.04388E+03  1.152E+00  1.200E+01  6.000E-02  1.384E+00
   1   10    7     6     2    2.2566E+01  2.4867E-01   2.2317E+01  0.000E+00  0.000E+00  0.000E+00  1.03933E+03  1.144E+00  1.200E+01  6.000E-02  1.381E+00
   1   11    7     6     3    2.2317E+01  2.4821E-01   2.2069E+01  0.000E+00  0.000E+00  0.000E+00  1.03477E+03  1.137E+00  1.200E+01  6.000E-02  1.379E+00
   1   12    7     6     4    2.2069E+01  2.4775E-01   2.1821E+01  0.000E+00  0.000E+00  0.000E+00  1.03022E+03  1.129E+00  1.200E+01  6.000E-02  1.376E+00
   1   13    7     6     5    2.1821E+01 -1.9047E-02   2.1840E+01  0.000E+00  0.000E+00  0.000E+00  1.02703E+03  1.126E+00  1.200E+01  2.400E-01 -2.645E-02
   1   14    9     7     1    1.5000E+02  1.3367E+00   1.4866E+02  0.000E+00  0.000E+00  0.000E+00  1.03987E+03  2.288E+00  5.529E+01  5.593E-01  7.967E-01
   1   13    8     7     2    1.4866E+02  1.8259E+00   1.4684E+02  0.000E+00  0.000E+00  0.000E+00  1.03478E+03  2.279E+00  5.526E+01  6.148E-01  9.900E-01
   1   13    7     7     3    1.4684E+02  1.4385E+00   1.4540E+02  0.000E+00  0.000E+00  0.000E+00  1.02969E+03  2.271E+00  5.522E+01  5.585E-01  8.586E-01
   1   13    6     8     1    1.6724E+02  8.6867E-01   1.6637E+02  0.000E+00  0.000E+00  0.000E+00  1.02481E+03  2.931E+00  4.250E+01  4.331E-01  6.685E-01
   1   13    5     8     2    1.6637E+02  1.2495E-01   1.6625E+02  0.000E+00  0.000E+00  0.000E+00  1.01855E+03  2.928E+00  4.246E+01  4.326E-01  9.627E-02
   1   13    4     8     3    1.6625E+02 -2.6498E+00   1.6890E+02  0.000E+00  0.000E+00  0.000E+00  1.01231E+03  2.936E+00  4.258E+01  4.339E+00 -2.036E-01
   1   13    3     8     4    1.6890E+02 -3.7873E+00   1.7268E+02  0.000E+00  0.000E+00  0.000E+00  1.00608E+03  2.957E+00  4.288E+01  4.370E+00 -2.889E-01
   1   13    2     8     5    1.7268E+02 -2.6849E+00   1.7537E+02  0.000E+00  0.000E+00  0.000E+00  9.99853E+02  2.978E+00  4.318E+01  4.401E+00 -2.034E-01
   1   13    1     8     6    1.7537E+02 -2.0710E+00   1.7744E+02  0.000E+00  0.000E+00  0.000E+00  9.94868E+02  2.993E+00  4.340E+01  2.654E+00 -2.601E-01
   1    8    6     9     1    2.2296E+01  0.0000E+00   2.2296E+01  0.000E+00  0.000E+00  0.000E+00  1.08242E+03  3.666E+00  4.000E+00  0.000E+00  2.222E+00
   1    8    5     9     2    2.2296E+01  0.0000E+00   2.2296E+01  0.000E+00  0.000E+00  0.000E+00  1.08192E+03  3.666E+00  4.000E+00  0.000E+00  2.222E+00





UNSATURATED ZONE PACKAGE VOLUMETRIC BUDGET FOR  TIME STEP    30 STRESS PERIOD   19
  ------------------------------------------------------------------------------



     CUMULATIVE VOLUMES      L**3       RATES FOR THIS TIME STEP      L**3/T
     ------------------                 ------------------------

           IN:                                      IN:
           ---                                      ---
        INFILTRATION =   778726301.1501          INFILTRATION =          26.7039

          OUT:                                     OUT:
          ----                                     ----
              UZF ET =   636863198.6329                UZF ET =          26.6150
        UZF RECHARGE =      627361.4960          UZF RECHARGE =       0.0000E+00

            IN - OUT =   141235741.0212              IN - OUT =       8.8805E-02

          STORAGE:                                 STORAGE:
          --------                                 --------
      STORAGE CHANGE =   141236272.4349        STORAGE CHANGE =       8.8804E-02

 PERCENT DISCREPANCY IS DIFFERENCE BETWEEN IN-OUT MINUS CHANGE IN STORAGE
 DIVIDED BY THE AVERAGE OF IN AND OUT TIMES 100

 PERCENT DISCREPANCY =          -0.00     PERCENT DISCREPANCY =           0.00






1
  VOLUMETRIC BUDGET FOR AGRICULTURAL FIELDS AT  END OF TIME STEP   30, STRESS PERIOD  19
  ------------------------------------------------------------------------------

     CUMULATIVE VOLUMES      L**3       RATES FOR THIS TIME STEP      L**3/T
     ------------------                 ------------------------

           IN:                                      IN:
           ---                                      ---
               AG WELLS  =   146909760.0000                 AG WELLS  =           0.0000
      DIVERSION SEGMENTS =   423226400.0000        DIVERSION SEGMENTS =          22.2959
           GW IRRIGATION =           0.0000             GW IRRIGATION =           0.0000
           SW IRRIGATION =           0.0000             SW IRRIGATION =           0.0000
        SYSTEM LOSSES GW =           0.0000          SYSTEM LOSSES GW =           0.0000
        SYSTEM LOSSES SW =           0.0000          SYSTEM LOSSES SW =           0.0000

                TOTAL IN =   570136192.0000                  TOTAL IN =          22.2959

          OUT:                                     OUT:
          ----                                     ----
               AG WELLS  =           0.0000                 AG WELLS  =           0.0000
      DIVERSION SEGMENTS =           0.0000        DIVERSION SEGMENTS =           0.0000
           GW IRRIGATION =   146909760.0000             GW IRRIGATION =           0.0000
           SW IRRIGATION =   423234816.0000             SW IRRIGATION =          22.2964
        SYSTEM LOSSES GW =           0.0000          SYSTEM LOSSES GW =           0.0000
        SYSTEM LOSSES SW =           0.0000          SYSTEM LOSSES SW =           0.0000

               TOTAL OUT =   570144576.0000                 TOTAL OUT =          22.2964

                IN - OUT =       -8384.0000                  IN - OUT =      -4.4632E-04

     PERCENT DISCREPANCY =          -0.00         PERCENT DISCREPANCY =          -0.00



1
  VOLUMETRIC BUDGET FOR ENTIRE MODEL AT END OF TIME STEP   30, STRESS PERIOD  19
  ------------------------------------------------------------------------------

     CUMULATIVE VOLUMES      L**3       RATES FOR THIS TIME STEP      L**3/T
     ------------------                 ------------------------

           IN:                                      IN:
           ---                                      ---
             STORAGE     =   266980160.0000               STORAGE     =           1.3790
       CONSTANT HEAD     =           0.0000         CONSTANT HEAD     =           0.0000
     HEAD DEP BOUNDS     =    13552241.0000       HEAD DEP BOUNDS     =           0.2858
      STREAM LEAKAGE     =   571258304.0000        STREAM LEAKAGE     =          11.9783
        UZF RECHARGE     =      627361.5000          UZF RECHARGE     =           0.0000
               GW ET     =           0.0000                 GW ET     =           0.0000
     SURFACE LEAKAGE     =           0.0000       SURFACE LEAKAGE     =           0.0000
           AG WELLS      =           0.0000             AG WELLS      =           0.0000

                TOTAL IN =   852418112.0000                  TOTAL IN =          13.6432

          OUT:                                     OUT:
          ----                                     ----
             STORAGE     =   178310048.0000               STORAGE     =           2.1403
       CONSTANT HEAD     =           0.0000         CONSTANT HEAD     =           0.0000
     HEAD DEP BOUNDS     =    13817338.0000       HEAD DEP BOUNDS     =           0.2907
      STREAM LEAKAGE     =   511360000.0000        STREAM LEAKAGE     =          11.2121
        UZF RECHARGE     =           0.0000          UZF RECHARGE     =           0.0000
               GW ET     =     2023766.7500                 GW ET     =           0.0000
     SURFACE LEAKAGE     =           0.0000       SURFACE LEAKAGE     =           0.0000
           AG WELLS      =   146909760.0000             AG WELLS      =           0.0000

               TOTAL OUT =   852420864.0000                 TOTAL OUT =          13.6430

                IN - OUT =       -2752.0000                  IN - OUT =       1.2779E-04

     PERCENT DISCREPANCY =          -0.00         PERCENT DISCREPANCY =           0.00






         TIME SUMMARY AT END OF TIME STEP   30 IN STRESS PERIOD   19
                    SECONDS     MINUTES      HOURS       DAYS        YEARS
                    -----------------------------------------------------------
   TIME STEP LENGTH  87667.      1461.1      24.352      1.0147     2.77799E-03
 STRESS PERIOD TIME 2.63000E+06  43833.      730.56      30.440     8.33397E-02
         TOTAL TIME 4.74265E+07 7.90442E+05  13174.      548.92      1.5029    
1
1
                            STRESS PERIOD NO.   20, LENGTH =   2630000.    
                            -----------------------------------------------

                              NUMBER OF TIME STEPS =    30

                               MULTIPLIER FOR DELT =     1.000

                            INITIAL TIME STEP SIZE =   87666.66    

 REUSING NON-PARAMETER GHB CELLS FROM LAST STRESS PERIOD

      2 GHB CELLS

 REUSING STREAM SEGMENT DATA FROM LAST STRESS PERIOD



            AREAL INFILTRATION RATE
 READING ON UNIT   19 WITH FORMAT: (10F4.0)            

            1           2           3           4           5           6           7           8           9          10
 ........................................................................................................................
   1   1.2000E-09   0.000       0.000       0.000       0.000       0.000       0.000       0.000       0.000       0.000    
   2   2.1000E-09  2.0000E-09  8.0000E-10  8.5000E-09   0.000       0.000       0.000       0.000       0.000       0.000    
   3   5.0000E-10  1.1000E-09  8.8000E-09  5.5000E-09   0.000       0.000       0.000       0.000       0.000       0.000    
   4   8.5000E-09  1.1000E-09  1.1000E-09  1.1000E-09  2.0000E-09   0.000       0.000       0.000       0.000       0.000    
   5   8.5000E-09  1.1000E-09  1.1000E-09  1.1000E-09  1.1000E-09   0.000       0.000       0.000       0.000       0.000    
   6   8.5000E-09  5.2000E-09  2.1000E-09  1.1000E-09  1.5000E-09   0.000       0.000       0.000       0.000       0.000    
   7   8.5000E-09  5.2000E-09  2.1000E-09  1.2000E-09  2.0000E-09   0.000       0.000       0.000       0.000       0.000    
   8   5.0000E-10  5.2000E-09  2.1000E-09  1.2000E-09  5.0000E-09   0.000       0.000       0.000       0.000       0.000    
   9   5.0000E-10  5.2000E-09  2.1000E-09  1.2000E-09  5.0000E-09   0.000       0.000       0.000       0.000       0.000    
  10   5.0000E-10  5.2000E-09  2.1000E-09  1.2000E-09  5.8000E-09   0.000       0.000       0.000       0.000       0.000    
  11   1.0000E-10  1.1000E-09  1.1000E-09  1.2000E-09  5.0000E-09   0.000       0.000       0.000       0.000       0.000    
  12   1.1000E-09  1.1000E-09  1.1000E-09  1.1000E-09  2.0000E-09   0.000       0.000       0.000       0.000       0.000    
  13   1.1000E-09  2.2000E-09  2.2000E-09  2.1000E-09  1.0000E-09   0.000       0.000       0.000       0.000       0.000    
  14   2.0000E-10  5.5000E-09  5.5000E-09  5.2000E-09  1.0000E-09   0.000       0.000       0.000       0.000       0.000    
  15    0.000      8.8000E-09  8.8000E-09   0.000       0.000       0.000       0.000       0.000       0.000       0.000    

                  ET RATE =  4.000000E-07

 USING ET EXTINCTION DEPTH FROM PREVIOUS STRESS PERIOD. CURRENT PERIOD IS:      20

 USING EXTINCTION WATER CONTENT FROM PREVIOUS STRESS PERIOD. CURRENT PERIOD IS:      20

 USING AIR ENTRY PRESSURE FROM PREVIOUS STRESS PERIOD. CURRENT PERIOD IS:      20

 USING ROOT PRESSURE HEAD FROM PREVIOUS STRESS PERIOD. CURRENT PERIOD IS:      20

 USING ROOT ACTIVITY FROM PREVIOUS STRESS PERIOD. CURRENT PERIOD IS:      20

 PROCESSING AG STRESS PERIOD DATA

 READING AG STRESS PERIOD DATA

 READING IRRIGATION SEGMENT

 READING IRRIGATION WELL

 READING SUPPLEMENTAL WELL

 END PROCESSING AG STRESS PERIOD DATA OPTIONS
 
 SOLVING FOR HEAD 
                                                   Max.-Head-Change                         Max.-Flux-Residual
  Residual-Control   Outer-Iter.   Inner-Iter.     Column Row Layer    Maximum-Head-Change  Column Row Layer    Maximum-Flux-Residual          L2-NORM 
          0                 1           2             4   13     1       0.7083004085E-02       4   13    1         0.4081273621E+00      0.7948499590E+00
          0                 2           2             4    7     1      -0.1546792555E+00       4    7    1        -0.8307399130E+01      0.2039607437E+02
          0                 3           2             4    7     1       0.1053478125E-01       5    7    1         0.5814095708E+00      0.1430480717E+01
          0                 4           2             4    7     1      -0.4218963271E-03       4    7    1        -0.2395189004E-01      0.5889292131E-01
          0                 5           1             7   13     1      -0.5291703040E-05       7   13    1        -0.3115411478E-03      0.8027737897E-03

    ------------------------------------------------
       NWT REQUIRED            5 OUTER ITERATIONS 
       AND A TOTAL OF          9 INNER ITERATIONS.
    ------------------------------------------------

 OUTPUT CONTROL FOR STRESS PERIOD   20   TIME STEP    1
    PRINT BUDGET
    SAVE BUDGET
    SAVE BUDGET
    SAVE HEAD FOR ALL LAYERS
 UBDSV1 SAVING "         STORAGE" ON UNIT 102 AT TIME STEP  1, STRESS PERIOD  20
 UBDSV2 SAVING "   CONSTANT HEAD" ON UNIT 102 AT TIME STEP  1, STRESS PERIOD  20
 UBDSV1 SAVING "FLOW RIGHT FACE " ON UNIT 102 AT TIME STEP  1, STRESS PERIOD  20
 UBDSV1 SAVING "FLOW FRONT FACE " ON UNIT 102 AT TIME STEP  1, STRESS PERIOD  20

  HEAD DEP BOUNDS   PERIOD   20   STEP     1
 BOUNDARY      1   LAYER   1   ROW    13   COL     1   RATE   -0.290497    
 BOUNDARY      2   LAYER   1   ROW    14   COL     9   RATE    0.285823    



 STREAM LISTING     PERIOD     20   STEP        1

 LAYER ROW COL. STREAM  RCH.  FLOW INTO     FLOW TO   FLOW OUT OF   OVRLND.     DIRECT     STREAM       STREAM     STREAM     STREAM   STREAMBED  STREAMBED
                SEG.NO.  NO.  STRM. RCH.    AQUIFER    STRM. RCH.    RUNOFF     PRECIP       ET          HEAD       DEPTH      WIDTH   CONDCTNC.   GRADIENT

   1    1    1     1     1    4.0501E+01  3.0566E-01   4.0195E+01  0.000E+00  0.000E+00  0.000E+00  1.09438E+03  1.335E+00  1.567E+01  7.051E-02  1.445E+00
   1    2    2     1     2    4.0195E+01  4.7341E-01   3.9722E+01  0.000E+00  0.000E+00  0.000E+00  1.08939E+03  1.332E+00  1.561E+01  1.093E-01  1.444E+00
   1    3    3     1     3    3.9722E+01  4.0378E-01   3.9318E+01  0.000E+00  0.000E+00  0.000E+00  1.08375E+03  1.329E+00  1.555E+01  9.328E-02  1.443E+00
   1    3    4     1     4    3.9318E+01  3.7185E-01   3.8946E+01  0.000E+00  0.000E+00  0.000E+00  1.07873E+03  1.326E+00  1.549E+01  8.596E-02  1.442E+00
   1    4    5     2     1    3.6946E+01  3.5272E-01   3.6593E+01  0.000E+00  0.000E+00  0.000E+00  1.07346E+03  1.522E+00  1.200E+01  7.800E-02  1.507E+00
   1    5    6     2     2    3.6593E+01  2.7086E-01   3.6322E+01  0.000E+00  0.000E+00  0.000E+00  1.06802E+03  1.514E+00  1.200E+01  6.000E-02  1.505E+00
   1    6    6     2     3    3.6322E+01  2.7045E-01   3.6052E+01  0.000E+00  0.000E+00  0.000E+00  1.06330E+03  1.508E+00  1.200E+01  6.000E-02  1.503E+00
   1    7    6     2     4    3.6052E+01  2.7005E-01   3.5782E+01  0.000E+00  0.000E+00  0.000E+00  1.05858E+03  1.501E+00  1.200E+01  6.000E-02  1.500E+00
   1    8    6     2     5    3.5782E+01  2.6964E-01   3.5512E+01  0.000E+00  0.000E+00  0.000E+00  1.05385E+03  1.494E+00  1.200E+01  6.000E-02  1.498E+00
   1    3    5     3     1    2.0000E+00  2.8252E-01   1.7175E+00  0.000E+00  0.000E+00  0.000E+00  1.07555E+03  1.909E+00  9.636E+00  7.227E-02  1.955E+00
   1    3    6     3     2    1.7175E+00  2.4905E-01   1.4684E+00  0.000E+00  0.000E+00  0.000E+00  1.07264E+03  1.727E+00  8.909E+00  6.682E-02  1.864E+00
   1    3    7     3     3    1.4684E+00  1.9718E-01   1.2712E+00  0.000E+00  0.000E+00  0.000E+00  1.06987E+03  1.555E+00  8.218E+00  5.547E-02  1.777E+00
   1    4    8     3     4    1.2712E+00  2.2567E-01   1.0456E+00  0.000E+00  0.000E+00  0.000E+00  1.06682E+03  1.364E+00  7.455E+00  6.709E-02  1.682E+00
   1    5    8     3     5    1.0456E+00  1.5790E-01   8.8768E-01  0.000E+00  0.000E+00  0.000E+00  1.06362E+03  1.164E+00  6.655E+00  4.991E-02  1.582E+00
   1    6    8     3     6    8.8768E-01  5.5980E-02   8.3170E-01  0.000E+00  0.000E+00  0.000E+00  1.06158E+03  1.036E+00  6.145E+00  1.844E-02  1.518E+00
   1    5   10     4     1    1.0000E+01  9.0919E-02   9.9091E+00  0.000E+00  0.000E+00  0.000E+00  1.07836E+03  6.368E-01  1.000E+01  2.500E-02  1.212E+00
   1    5    9     4     2    9.9091E+00  1.8158E-01   9.7275E+00  0.000E+00  0.000E+00  0.000E+00  1.07154E+03  6.315E-01  1.000E+01  5.000E-02  1.211E+00
   1    6    8     4     3    9.7275E+00  1.2689E-01   9.6006E+00  0.000E+00  0.000E+00  0.000E+00  1.06381E+03  6.256E-01  1.000E+01  3.500E-02  1.209E+00
   1    6    8     5     1    1.0432E+01  2.2686E-01   1.0205E+01  0.000E+00  0.000E+00  0.000E+00  1.05868E+03  6.790E-01  1.542E+01  6.166E-02  1.226E+00
   1    7    7     5     2    1.0205E+01  2.7894E-01   9.9265E+00  0.000E+00  0.000E+00  0.000E+00  1.05417E+03  6.732E-01  1.519E+01  7.594E-02  1.224E+00
   1    8    7     5     3    9.9265E+00  1.9221E-01   9.7343E+00  0.000E+00  0.000E+00  0.000E+00  1.04992E+03  6.676E-01  1.497E+01  5.241E-02  1.223E+00
   1    8    6     5     4    9.7343E+00  1.3577E-01   9.5985E+00  0.000E+00  0.000E+00  0.000E+00  1.04691E+03  6.637E-01  1.482E+01  3.706E-02  1.221E+00
   1    9    6     6     1    9.5985E+00  2.2097E-01   9.3776E+00  0.000E+00  0.000E+00  0.000E+00  1.04341E+03  6.828E-01  1.200E+01  6.000E-02  1.228E+00
   1   10    7     6     2    9.3776E+00  2.2039E-01   9.1572E+00  0.000E+00  0.000E+00  0.000E+00  1.03885E+03  6.732E-01  1.200E+01  6.000E-02  1.224E+00
   1   11    7     6     3    9.1572E+00  2.1981E-01   8.9374E+00  0.000E+00  0.000E+00  0.000E+00  1.03430E+03  6.636E-01  1.200E+01  6.000E-02  1.221E+00
   1   12    7     6     4    8.9374E+00  2.1923E-01   8.7181E+00  0.000E+00  0.000E+00  0.000E+00  1.02974E+03  6.539E-01  1.200E+01  6.000E-02  1.218E+00
   1   13    7     6     5    8.7181E+00 -1.3213E-01   8.8503E+00  0.000E+00  0.000E+00  0.000E+00  1.02656E+03  6.519E-01  1.200E+01  2.400E-01 -1.835E-01
   1   14    9     7     1    1.5000E+02  1.3368E+00   1.4866E+02  0.000E+00  0.000E+00  0.000E+00  1.03987E+03  2.288E+00  5.529E+01  5.593E-01  7.967E-01
   1   13    8     7     2    1.4866E+02  1.8259E+00   1.4684E+02  0.000E+00  0.000E+00  0.000E+00  1.03478E+03  2.279E+00  5.526E+01  6.148E-01  9.900E-01
   1   13    7     7     3    1.4684E+02  1.4399E+00   1.4540E+02  0.000E+00  0.000E+00  0.000E+00  1.02969E+03  2.271E+00  5.522E+01  5.585E-01  8.595E-01
   1   13    6     8     1    1.5425E+02  8.0682E-01   1.5344E+02  0.000E+00  0.000E+00  0.000E+00  1.02472E+03  2.844E+00  4.123E+01  4.202E-01  6.401E-01
   1   13    5     8     2    1.5344E+02  8.5300E-02   1.5336E+02  0.000E+00  0.000E+00  0.000E+00  1.01847E+03  2.841E+00  4.119E+01  4.197E-01  6.774E-02
   1   13    4     8     3    1.5336E+02 -2.9091E+00   1.5626E+02  0.000E+00  0.000E+00  0.000E+00  1.01223E+03  2.850E+00  4.133E+01  4.212E+00 -2.302E-01
   1   13    3     8     4    1.5626E+02 -4.0115E+00   1.6028E+02  0.000E+00  0.000E+00  0.000E+00  1.00600E+03  2.874E+00  4.167E+01  4.247E+00 -3.149E-01
   1   13    2     8     5    1.6028E+02 -2.9318E+00   1.6321E+02  0.000E+00  0.000E+00  0.000E+00  9.99773E+02  2.898E+00  4.202E+01  4.281E+00 -2.283E-01
   1   13    1     8     6    1.6321E+02 -2.2091E+00   1.6542E+02  0.000E+00  0.000E+00  0.000E+00  9.94790E+02  2.915E+00  4.226E+01  2.584E+00 -2.850E-01
   1    8    6     9     1    3.5512E+01  0.0000E+00   3.5512E+01  0.000E+00  0.000E+00  0.000E+00  1.08360E+03  4.847E+00  4.000E+00  0.000E+00  2.616E+00
   1    8    5     9     2    3.5512E+01  0.0000E+00   3.5512E+01  0.000E+00  0.000E+00  0.000E+00  1.08310E+03  4.847E+00  4.000E+00  0.000E+00  2.616E+00



 UBDSV3 SAVING "           GW ET" ON UNIT  61 AT TIME STEP  1, STRESS PERIOD  20
 UBDSV3 SAVING "    UZF RECHARGE" ON UNIT  61 AT TIME STEP  1, STRESS PERIOD  20
 UBDSV3 SAVING " SURFACE LEAKAGE" ON UNIT  61 AT TIME STEP  1, STRESS PERIOD  20
 UBDSV3 SAVING "       HORT+DUNN" ON UNIT  61 AT TIME STEP  1, STRESS PERIOD  20
 UBDSV3 SAVING "  STORAGE CHANGE" ON UNIT  61 AT TIME STEP  1, STRESS PERIOD  20


UNSATURATED ZONE PACKAGE VOLUMETRIC BUDGET FOR  TIME STEP     1 STRESS PERIOD   20
  ------------------------------------------------------------------------------



     CUMULATIVE VOLUMES      L**3       RATES FOR THIS TIME STEP      L**3/T
     ------------------                 ------------------------

           IN:                                      IN:
           ---                                      ---
        INFILTRATION =   786589995.0945          INFILTRATION =          89.6999

          OUT:                                     OUT:
          ----                                     ----
              UZF ET =   642483289.2023                UZF ET =          64.1075
        UZF RECHARGE =      627361.4960          UZF RECHARGE =       0.0000E+00

            IN - OUT =   143479344.3962              IN - OUT =          25.5924

          STORAGE:                                 STORAGE:
          --------                                 --------
      STORAGE CHANGE =   143479875.8224        STORAGE CHANGE =          25.5924

 PERCENT DISCREPANCY IS DIFFERENCE BETWEEN IN-OUT MINUS CHANGE IN STORAGE
 DIVIDED BY THE AVERAGE OF IN AND OUT TIMES 100

 PERCENT DISCREPANCY =          -0.00     PERCENT DISCREPANCY =           0.00






 

            AG WELLS      PERIOD   20   STEP   1
 AG WELL      1   LAYER   1   ROW     6   COL     4   RATE    -8.29659    
 AG WELL      2   LAYER   1   ROW     6   COL     5   RATE    -8.29659    
 AG WELL      3   LAYER   1   ROW     7   COL     4   RATE    -8.29659    
 AG WELL      4   LAYER   1   ROW     7   COL     5   RATE    -8.29659    
 AG WELL      5   LAYER   1   ROW     8   COL     4   RATE    -8.29659    
 AG WELL      6   LAYER   1   ROW     8   COL     5   RATE    -8.29659    
 
 

   DIVERSION SEGMENTS     PERIOD   20   STEP   1
 SEGMENT      9   RATE     35.5122    
 
 

        SW IRRIGATION     PERIOD   20   STEP   1
 SEGMENT      9   ROW     6   COL     4   RATE     5.91882    
 SEGMENT      9   ROW     6   COL     5   RATE     5.91882    
 SEGMENT      9   ROW     7   COL     4   RATE     5.91882    
 SEGMENT      9   ROW     7   COL     5   RATE     5.91882    
 SEGMENT      9   ROW     8   COL     4   RATE     5.91882    
 SEGMENT      9   ROW     8   COL     5   RATE     5.91882    
 
 

        GW IRRIGATION     PERIOD   20   STEP   1
 AG WELL      1   ROW     6   COL     4   RATE     8.29659    
 AG WELL      2   ROW     6   COL     5   RATE     8.29659    
 AG WELL      3   ROW     7   COL     4   RATE     8.29659    
 AG WELL      4   ROW     7   COL     5   RATE     8.29659    
 AG WELL      5   ROW     8   COL     4   RATE     8.29659    
 AG WELL      6   ROW     8   COL     5   RATE     8.29659    
 
1
  VOLUMETRIC BUDGET FOR AGRICULTURAL FIELDS AT  END OF TIME STEP    1, STRESS PERIOD  20
  ------------------------------------------------------------------------------

     CUMULATIVE VOLUMES      L**3       RATES FOR THIS TIME STEP      L**3/T
     ------------------                 ------------------------

           IN:                                      IN:
           ---                                      ---
               AG WELLS  =   151273760.0000                 AG WELLS  =          49.7795
      DIVERSION SEGMENTS =   426339648.0000        DIVERSION SEGMENTS =          35.5122
           GW IRRIGATION =           0.0000             GW IRRIGATION =           0.0000
           SW IRRIGATION =           0.0000             SW IRRIGATION =           0.0000
        SYSTEM LOSSES GW =           0.0000          SYSTEM LOSSES GW =           0.0000
        SYSTEM LOSSES SW =           0.0000          SYSTEM LOSSES SW =           0.0000

                TOTAL IN =   577613440.0000                  TOTAL IN =          85.2917

          OUT:                                     OUT:
          ----                                     ----
               AG WELLS  =           0.0000                 AG WELLS  =           0.0000
      DIVERSION SEGMENTS =           0.0000        DIVERSION SEGMENTS =           0.0000
           GW IRRIGATION =   151273760.0000             GW IRRIGATION =          49.7795
           SW IRRIGATION =   426348128.0000             SW IRRIGATION =          35.5129
        SYSTEM LOSSES GW =           0.0000          SYSTEM LOSSES GW =           0.0000
        SYSTEM LOSSES SW =           0.0000          SYSTEM LOSSES SW =           0.0000

               TOTAL OUT =   577621888.0000                 TOTAL OUT =          85.2924

                IN - OUT =       -8448.0000                  IN - OUT =      -7.1716E-04

     PERCENT DISCREPANCY =          -0.00         PERCENT DISCREPANCY =          -0.00




 HEAD WILL BE SAVED ON UNIT   62 AT END OF TIME STEP    1, STRESS PERIOD   20
1
  VOLUMETRIC BUDGET FOR ENTIRE MODEL AT END OF TIME STEP    1, STRESS PERIOD  20
  ------------------------------------------------------------------------------

     CUMULATIVE VOLUMES      L**3       RATES FOR THIS TIME STEP      L**3/T
     ------------------                 ------------------------

           IN:                                      IN:
           ---                                      ---
             STORAGE     =   271467104.0000               STORAGE     =          51.1818
       CONSTANT HEAD     =           0.0000         CONSTANT HEAD     =           0.0000
     HEAD DEP BOUNDS     =    13577298.0000       HEAD DEP BOUNDS     =           0.2858
      STREAM LEAKAGE     =   572289728.0000        STREAM LEAKAGE     =          11.7650
        UZF RECHARGE     =      627361.5000          UZF RECHARGE     =           0.0000
               GW ET     =           0.0000                 GW ET     =           0.0000
     SURFACE LEAKAGE     =           0.0000       SURFACE LEAKAGE     =           0.0000
           AG WELLS      =           0.0000             AG WELLS      =           0.0000

                TOTAL IN =   857961536.0000                  TOTAL IN =          63.2326

          OUT:                                     OUT:
          ----                                     ----
             STORAGE     =   178394976.0000               STORAGE     =           0.9688
       CONSTANT HEAD     =           0.0000         CONSTANT HEAD     =           0.0000
     HEAD DEP BOUNDS     =    13842805.0000       HEAD DEP BOUNDS     =           0.2905
      STREAM LEAKAGE     =   512428992.0000        STREAM LEAKAGE     =          12.1937
        UZF RECHARGE     =           0.0000          UZF RECHARGE     =           0.0000
               GW ET     =     2023766.7500                 GW ET     =           0.0000
     SURFACE LEAKAGE     =           0.0000       SURFACE LEAKAGE     =           0.0000
           AG WELLS      =   151273760.0000             AG WELLS      =          49.7795

               TOTAL OUT =   857964288.0000                 TOTAL OUT =          63.2326

                IN - OUT =       -2752.0000                  IN - OUT =       3.8147E-05

     PERCENT DISCREPANCY =          -0.00         PERCENT DISCREPANCY =           0.00






         TIME SUMMARY AT END OF TIME STEP    1 IN STRESS PERIOD   20
                    SECONDS     MINUTES      HOURS       DAYS        YEARS
                    -----------------------------------------------------------
   TIME STEP LENGTH  87667.      1461.1      24.352      1.0147     2.77799E-03
 STRESS PERIOD TIME  87667.      1461.1      24.352      1.0147     2.77799E-03
         TOTAL TIME 4.75142E+07 7.91903E+05  13198.      549.93      1.5056    
1
 
 SOLVING FOR HEAD 
                                                   Max.-Head-Change                         Max.-Flux-Residual
  Residual-Control   Outer-Iter.   Inner-Iter.     Column Row Layer    Maximum-Head-Change  Column Row Layer    Maximum-Flux-Residual          L2-NORM 
          0                 1           2             4   13     1       0.7684750306E-02       4   13    1         0.4428654133E+00      0.1018502114E+01
          0                 2           2             4    7     1      -0.1056589701E+00       5    8    1        -0.5691372918E+01      0.1399163863E+02
          0                 3           2             4    7     1       0.1185033394E-01       5    6    1         0.6580385786E+00      0.1613642676E+01
          0                 4           2             4    7     1      -0.4715367186E-03       5    6    1        -0.2690424998E-01      0.6628864555E-01
          0                 5           1             4    7     1       0.5814250582E-05       4    8    1         0.3404792051E-03      0.8940278816E-03

    ------------------------------------------------
       NWT REQUIRED            5 OUTER ITERATIONS 
       AND A TOTAL OF          9 INNER ITERATIONS.
    ------------------------------------------------

 NO OUTPUT CONTROL FOR STRESS PERIOD   20   TIME STEP    2
 
 SOLVING FOR HEAD 
                                                   Max.-Head-Change                         Max.-Flux-Residual
  Residual-Control   Outer-Iter.   Inner-Iter.     Column Row Layer    Maximum-Head-Change  Column Row Layer    Maximum-Flux-Residual          L2-NORM 
          0                 1           2             5    8     1       0.8557282724E-02       4   13    1         0.4743157652E+00      0.1253856034E+01
          0                 2           2             4    7     1      -0.2584407741E+00       5    8    1        -0.1390028293E+02      0.3405001408E+02
          0                 3           2             4    7     1       0.1759691257E-01       5    6    1         0.9727951993E+00      0.2382802469E+01
          0                 4           2             4    7     1      -0.7001995948E-03       5    6    1        -0.3977161614E-01      0.9763847287E-01
          0                 5           1             4    7     1       0.8633761453E-05       4    7    1         0.5031727164E-03      0.1276093803E-02

    ------------------------------------------------
       NWT REQUIRED            5 OUTER ITERATIONS 
       AND A TOTAL OF          9 INNER ITERATIONS.
    ------------------------------------------------

 NO OUTPUT CONTROL FOR STRESS PERIOD   20   TIME STEP    3
 
 SOLVING FOR HEAD 
                                                   Max.-Head-Change                         Max.-Flux-Residual
  Residual-Control   Outer-Iter.   Inner-Iter.     Column Row Layer    Maximum-Head-Change  Column Row Layer    Maximum-Flux-Residual          L2-NORM 
          0                 1           2             5    8     1       0.1545659201E-01       5    8    1         0.8464094714E+00      0.1949288948E+01
          0                 2           2             4    7     1      -0.9404100814E-01       5    8    1        -0.5105833788E+01      0.1250862447E+02
          0                 3           2             4    7     1       0.2266969776E-01       5    8    1         0.1254857683E+01      0.3073780398E+01
          0                 4           2             4    7     1      -0.9020516233E-03       5    8    1        -0.5130960209E-01      0.1260157553E+00
          0                 5           1             4    7     1       0.1112268272E-04       5    6    1         0.6492141711E-03      0.1652118587E-02

    ------------------------------------------------
       NWT REQUIRED            5 OUTER ITERATIONS 
       AND A TOTAL OF          9 INNER ITERATIONS.
    ------------------------------------------------

 NO OUTPUT CONTROL FOR STRESS PERIOD   20   TIME STEP    4
 
 SOLVING FOR HEAD 
                                                   Max.-Head-Change                         Max.-Flux-Residual
  Residual-Control   Outer-Iter.   Inner-Iter.     Column Row Layer    Maximum-Head-Change  Column Row Layer    Maximum-Flux-Residual          L2-NORM 
          0                 1           2             5    8     1       0.1685263879E-01       5    8    1         0.9227441387E+00      0.2125206618E+01
          0                 2           2             4    7     1      -0.2589225942E+00       5    8    1        -0.1396058625E+02      0.3416213255E+02
          0                 3           2             4    7     1       0.1763127517E-01       5    6    1         0.9769701063E+00      0.2393369014E+01
          0                 4           2             4    7     1      -0.7015668232E-03       5    6    1        -0.3994408678E-01      0.9806062486E-01
          0                 5           1             4    7     1       0.8650619910E-05       5    6    1         0.5052544534E-03      0.1279055502E-02

    ------------------------------------------------
       NWT REQUIRED            5 OUTER ITERATIONS 
       AND A TOTAL OF          9 INNER ITERATIONS.
    ------------------------------------------------

 NO OUTPUT CONTROL FOR STRESS PERIOD   20   TIME STEP    5
 
 SOLVING FOR HEAD 
                                                   Max.-Head-Change                         Max.-Flux-Residual
  Residual-Control   Outer-Iter.   Inner-Iter.     Column Row Layer    Maximum-Head-Change  Column Row Layer    Maximum-Flux-Residual          L2-NORM 
          0                 1           2             5    8     1       0.2330662651E-01       5    8    1         0.1277666475E+01      0.2854200772E+01
          0                 2           2             4    7     1      -0.9423031297E-01       5    8    1        -0.5147495599E+01      0.1257932735E+02
          0                 3           2             4    7     1       0.2270919364E-01       5    8    1         0.1259255539E+01      0.3082221936E+01
          0                 4           2             4    7     1      -0.9036231655E-03       5    8    1        -0.5149117868E-01      0.1263566973E+00
          0                 5           1             4    7     1       0.1114206016E-04       5    8    1         0.6516302615E-03      0.1654892561E-02

    ------------------------------------------------
       NWT REQUIRED            5 OUTER ITERATIONS 
       AND A TOTAL OF          9 INNER ITERATIONS.
    ------------------------------------------------

 NO OUTPUT CONTROL FOR STRESS PERIOD   20   TIME STEP    6
 
 SOLVING FOR HEAD 
                                                   Max.-Head-Change                         Max.-Flux-Residual
  Residual-Control   Outer-Iter.   Inner-Iter.     Column Row Layer    Maximum-Head-Change  Column Row Layer    Maximum-Flux-Residual          L2-NORM 
          0                 1           2             5    8     1       0.2428219038E-01       5    8    1         0.1330544784E+01      0.2991931962E+01
          0                 2           2             4    7     1      -0.2591504023E+00       5    8    1        -0.1400140063E+02      0.3423329853E+02
          0                 3           2             4    7     1       0.1764679416E-01       5    8    1         0.9798155005E+00      0.2398297398E+01
          0                 4           2             4    7     1      -0.7021843074E-03       5    8    1        -0.4006175902E-01      0.9825545565E-01
          0                 5           1             4    7     1       0.8658234007E-05       5    6    1         0.5068438063E-03      0.1279834034E-02

    ------------------------------------------------
       NWT REQUIRED            5 OUTER ITERATIONS 
       AND A TOTAL OF          9 INNER ITERATIONS.
    ------------------------------------------------

 NO OUTPUT CONTROL FOR STRESS PERIOD   20   TIME STEP    7
 
 SOLVING FOR HEAD 
                                                   Max.-Head-Change                         Max.-Flux-Residual
  Residual-Control   Outer-Iter.   Inner-Iter.     Column Row Layer    Maximum-Head-Change  Column Row Layer    Maximum-Flux-Residual          L2-NORM 
          0                 1           2             5    8     1       0.3034307751E-01       5    8    1         0.1663540950E+01      0.3701521913E+01
          0                 2           2             4    7     1      -0.9446554888E-01       5    8    1        -0.5186080865E+01      0.1264878425E+02
          0                 3           2             4    7     1       0.2272535451E-01       5    8    1         0.1261975182E+01      0.3086991352E+01
          0                 4           2             4    7     1      -0.9042661852E-03       5    8    1        -0.5160390377E-01      0.1265489413E+00
          0                 5           1             4    7     1       0.1114998924E-04       5    8    1         0.6531596810E-03      0.1656765542E-02

    ------------------------------------------------
       NWT REQUIRED            5 OUTER ITERATIONS 
       AND A TOTAL OF          9 INNER ITERATIONS.
    ------------------------------------------------

 NO OUTPUT CONTROL FOR STRESS PERIOD   20   TIME STEP    8
 
 SOLVING FOR HEAD 
                                                   Max.-Head-Change                         Max.-Flux-Residual
  Residual-Control   Outer-Iter.   Inner-Iter.     Column Row Layer    Maximum-Head-Change  Column Row Layer    Maximum-Flux-Residual          L2-NORM 
          0                 1           2             5    8     1       0.3095470422E-01       5    8    1         0.1696145738E+01      0.3802050226E+01
          0                 2           2             4    7     1      -0.2593943901E+00       5    8    1        -0.1403796184E+02      0.3429974716E+02
          0                 3           2             4    7     1       0.1766341186E-01       5    8    1         0.9831121224E+00      0.2403204796E+01
          0                 4           2             4    7     1      -0.7028435397E-03       5    6    1        -0.4016687827E-01      0.9832952252E-01
          0                 5           1             4    7     1       0.8666362587E-05       5    6    1         0.5082712382E-03      0.1279862464E-02

    ------------------------------------------------
       NWT REQUIRED            5 OUTER ITERATIONS 
       AND A TOTAL OF          9 INNER ITERATIONS.
    ------------------------------------------------

 NO OUTPUT CONTROL FOR STRESS PERIOD   20   TIME STEP    9
 
 SOLVING FOR HEAD 
                                                   Max.-Head-Change                         Max.-Flux-Residual
  Residual-Control   Outer-Iter.   Inner-Iter.     Column Row Layer    Maximum-Head-Change  Column Row Layer    Maximum-Flux-Residual          L2-NORM 
          0                 1           2             5    8     1       0.3667365514E-01       5    8    1         0.2010096909E+01      0.4483943927E+01
          0                 2           2             4    8     1      -0.9485256523E-01       5    8    1        -0.5220737731E+01      0.1271381314E+02
          0                 3           2             4    7     1       0.2274248136E-01       5    8    1         0.1266724585E+01      0.3092388295E+01
          0                 4           2             4    7     1      -0.9049476433E-03       5    8    1        -0.5179837581E-01      0.1267658605E+00
          0                 5           1             4    7     1       0.1115839215E-04       5    8    1         0.6557063257E-03      0.1658605040E-02

    ------------------------------------------------
       NWT REQUIRED            5 OUTER ITERATIONS 
       AND A TOTAL OF          9 INNER ITERATIONS.
    ------------------------------------------------

 NO OUTPUT CONTROL FOR STRESS PERIOD   20   TIME STEP   10
 
 SOLVING FOR HEAD 
                                                   Max.-Head-Change                         Max.-Flux-Residual
  Residual-Control   Outer-Iter.   Inner-Iter.     Column Row Layer    Maximum-Head-Change  Column Row Layer    Maximum-Flux-Residual          L2-NORM 
          0                 1           2             5    8     1       0.3693443882E-01       5    8    1         0.2026015792E+01      0.4551566979E+01
          0                 2           2             4    7     1      -0.2596515990E+00       5    8    1        -0.1406885801E+02      0.3436114154E+02
          0                 3           2             4    7     1       0.1768103953E-01       5    8    1         0.9977595363E+00      0.2412666415E+01
          0                 4           2             4    7     1      -0.7035467741E-03       5    8    1        -0.4080268593E-01      0.9883452492E-01
          0                 5           1             4    7     1       0.8675034440E-05       5    8    1         0.5166993924E-03      0.1284466165E-02

    ------------------------------------------------
       NWT REQUIRED            5 OUTER ITERATIONS 
       AND A TOTAL OF          9 INNER ITERATIONS.
    ------------------------------------------------

 NO OUTPUT CONTROL FOR STRESS PERIOD   20   TIME STEP   11
 
 SOLVING FOR HEAD 
                                                   Max.-Head-Change                         Max.-Flux-Residual
  Residual-Control   Outer-Iter.   Inner-Iter.     Column Row Layer    Maximum-Head-Change  Column Row Layer    Maximum-Flux-Residual          L2-NORM 
          0                 1           2             5    8     1       0.4252939784E-01       5    8    1         0.2333623667E+01      0.5212109872E+01
          0                 2           2             5    6     1      -0.9537263416E-01       5    8    1        -0.5253084515E+01      0.1277524581E+02
          0                 3           2             4    7     1       0.2276037398E-01       5    8    1         0.1266690398E+01      0.3095640214E+01
          0                 4           2             4    7     1      -0.9056593665E-03       5    8    1        -0.5179678193E-01      0.1268962398E+00
          0                 5           1             4    7     1       0.1116716829E-04       5    8    1         0.6556729886E-03      0.1659645044E-02

    ------------------------------------------------
       NWT REQUIRED            5 OUTER ITERATIONS 
       AND A TOTAL OF          9 INNER ITERATIONS.
    ------------------------------------------------

 NO OUTPUT CONTROL FOR STRESS PERIOD   20   TIME STEP   12
 
 SOLVING FOR HEAD 
                                                   Max.-Head-Change                         Max.-Flux-Residual
  Residual-Control   Outer-Iter.   Inner-Iter.     Column Row Layer    Maximum-Head-Change  Column Row Layer    Maximum-Flux-Residual          L2-NORM 
          0                 1           2             5    8     1       0.4254702502E-01       5    8    1         0.2333190087E+01      0.5249417889E+01
          0                 2           2             4    7     1      -0.2599188304E+00       5    8    1        -0.1410166157E+02      0.3442079746E+02
          0                 3           2             4    7     1       0.1769916239E-01       5    8    1         0.9869882245E+00      0.2411412415E+01
          0                 4           2             4    7     1      -0.7042678875E-03       5    8    1        -0.4035728025E-01      0.9877834195E-01
          0                 5           1             4    7     1       0.8683925729E-05       5    8    1         0.5107255356E-03      0.1283045158E-02

    ------------------------------------------------
       NWT REQUIRED            5 OUTER ITERATIONS 
       AND A TOTAL OF          9 INNER ITERATIONS.
    ------------------------------------------------

 NO OUTPUT CONTROL FOR STRESS PERIOD   20   TIME STEP   13
 
 SOLVING FOR HEAD 
                                                   Max.-Head-Change                         Max.-Flux-Residual
  Residual-Control   Outer-Iter.   Inner-Iter.     Column Row Layer    Maximum-Head-Change  Column Row Layer    Maximum-Flux-Residual          L2-NORM 
          0                 1           2             5    8     1       0.4786333747E-01       5    8    1         0.2625288270E+01      0.5883089045E+01
          0                 2           2             5    6     1      -0.9587718143E-01       5    8    1        -0.5282250463E+01      0.1283288676E+02
          0                 3           2             4    7     1       0.2277887449E-01       5    8    1         0.1268732023E+01      0.3099573865E+01
          0                 4           2             4    7     1      -0.9063955003E-03       5    8    1        -0.5188101448E-01      0.1270550178E+00
          0                 5           1             4    7     1       0.1117624541E-04       5    8    1         0.6567900623E-03      0.1661326830E-02

    ------------------------------------------------
       NWT REQUIRED            5 OUTER ITERATIONS 
       AND A TOTAL OF          9 INNER ITERATIONS.
    ------------------------------------------------

 NO OUTPUT CONTROL FOR STRESS PERIOD   20   TIME STEP   14
 
 SOLVING FOR HEAD 
                                                   Max.-Head-Change                         Max.-Flux-Residual
  Residual-Control   Outer-Iter.   Inner-Iter.     Column Row Layer    Maximum-Head-Change  Column Row Layer    Maximum-Flux-Residual          L2-NORM 
          0                 1           2             5    8     1       0.4762054498E-01       5    8    1         0.2610370190E+01      0.5893490334E+01
          0                 2           2             4    7     1      -0.2601935405E+00       5    8    1        -0.1412937910E+02      0.3447599743E+02
          0                 3           2             4    7     1       0.1771787189E-01       5    8    1         0.9889385126E+00      0.2415247762E+01
          0                 4           2             4    7     1      -0.7050123412E-03       5    8    1        -0.4043802067E-01      0.9893208876E-01
          0                 5           1             4    7     1       0.8693105009E-05       5    8    1         0.5118149197E-03      0.1284035734E-02

    ------------------------------------------------
       NWT REQUIRED            5 OUTER ITERATIONS 
       AND A TOTAL OF          9 INNER ITERATIONS.
    ------------------------------------------------

 NO OUTPUT CONTROL FOR STRESS PERIOD   20   TIME STEP   15
 
 SOLVING FOR HEAD 
                                                   Max.-Head-Change                         Max.-Flux-Residual
  Residual-Control   Outer-Iter.   Inner-Iter.     Column Row Layer    Maximum-Head-Change  Column Row Layer    Maximum-Flux-Residual          L2-NORM 
          0                 1           2             5    8     1       0.5269329236E-01       5    8    1         0.2888929890E+01      0.6502451838E+01
          0                 2           2             5    6     1      -0.9633720537E-01       5    8    1        -0.5308614105E+01      0.1288703211E+02
          0                 3           2             4    7     1       0.2279779711E-01       5    8    1         0.1270577491E+01      0.3103271294E+01
          0                 4           2             4    7     1      -0.9071484339E-03       5    8    1        -0.5195712998E-01      0.1272044214E+00
          0                 5           1             4    7     1       0.1118552875E-04       5    8    1         0.6577978543E-03      0.1662673682E-02

    ------------------------------------------------
       NWT REQUIRED            5 OUTER ITERATIONS 
       AND A TOTAL OF          9 INNER ITERATIONS.
    ------------------------------------------------

 NO OUTPUT CONTROL FOR STRESS PERIOD   20   TIME STEP   16
 
 SOLVING FOR HEAD 
                                                   Max.-Head-Change                         Max.-Flux-Residual
  Residual-Control   Outer-Iter.   Inner-Iter.     Column Row Layer    Maximum-Head-Change  Column Row Layer    Maximum-Flux-Residual          L2-NORM 
          0                 1           2             5    8     1       0.5222276734E-01       5    8    1         0.2861362971E+01      0.6489057382E+01
          0                 2           2             4    7     1      -0.2604732707E+00       5    8    1        -0.1415447788E+02      0.3452789975E+02
          0                 3           2             4    7     1       0.1773692261E-01       5    8    1         0.9907042100E+00      0.2418855874E+01
          0                 4           2             4    7     1      -0.7057703761E-03       5    8    1        -0.4051108624E-01      0.9907726857E-01
          0                 5           1             4    7     1       0.8702451975E-05       5    8    1         0.5127985132E-03      0.1285290251E-02

    ------------------------------------------------
       NWT REQUIRED            5 OUTER ITERATIONS 
       AND A TOTAL OF          9 INNER ITERATIONS.
    ------------------------------------------------

 NO OUTPUT CONTROL FOR STRESS PERIOD   20   TIME STEP   17
 
 SOLVING FOR HEAD 
                                                   Max.-Head-Change                         Max.-Flux-Residual
  Residual-Control   Outer-Iter.   Inner-Iter.     Column Row Layer    Maximum-Head-Change  Column Row Layer    Maximum-Flux-Residual          L2-NORM 
          0                 1           2             5    8     1       0.5708212440E-01       5    8    1         0.3128077977E+01      0.7075534343E+01
          0                 2           2             5    6     1      -0.9675789389E-01       5    8    1        -0.5332528396E+01      0.1293796634E+02
          0                 3           2             4    7     1       0.2281699025E-01       5    8    1         0.1272251508E+01      0.3106752165E+01
          0                 4           2             4    7     1      -0.9079121358E-03       5    8    1        -0.5202615184E-01      0.1273452546E+00
          0                 5           1             4    7     1       0.1119494595E-04       5    8    1         0.6587102475E-03      0.1663922211E-02

    ------------------------------------------------
       NWT REQUIRED            5 OUTER ITERATIONS 
       AND A TOTAL OF          9 INNER ITERATIONS.
    ------------------------------------------------

 NO OUTPUT CONTROL FOR STRESS PERIOD   20   TIME STEP   18
 
 SOLVING FOR HEAD 
                                                   Max.-Head-Change                         Max.-Flux-Residual
  Residual-Control   Outer-Iter.   Inner-Iter.     Column Row Layer    Maximum-Head-Change  Column Row Layer    Maximum-Flux-Residual          L2-NORM 
          0                 1           2             5    8     1       0.5641191273E-01       5    8    1         0.3089435730E+01      0.7041085999E+01
          0                 2           2             4    7     1      -0.2607559995E+00       5    8    1        -0.1417728467E+02      0.3457677833E+02
          0                 3           2             4    7     1       0.1775617699E-01       5    8    1         0.9923083625E+00      0.2422254230E+01
          0                 4           2             4    7     1      -0.7065365167E-03       5    8    1        -0.4057743665E-01      0.9921408737E-01
          0                 5           1             4    7     1       0.8711898522E-05       5    8    1         0.5136896830E-03      0.1286320915E-02

    ------------------------------------------------
       NWT REQUIRED            5 OUTER ITERATIONS 
       AND A TOTAL OF          9 INNER ITERATIONS.
    ------------------------------------------------

 NO OUTPUT CONTROL FOR STRESS PERIOD   20   TIME STEP   19
 
 SOLVING FOR HEAD 
                                                   Max.-Head-Change                         Max.-Flux-Residual
  Residual-Control   Outer-Iter.   Inner-Iter.     Column Row Layer    Maximum-Head-Change  Column Row Layer    Maximum-Flux-Residual          L2-NORM 
          0                 1           2             5    8     1       0.6108394222E-01       5    8    1         0.3345767030E+01      0.7607111074E+01
          0                 2           2             5    6     1      -0.9714363917E-01       5    8    1        -0.5354296790E+01      0.1298594659E+02
          0                 3           2             4    7     1       0.2283632551E-01       5    8    1         0.1273775314E+01      0.3110033946E+01
          0                 4           2             4    7     1      -0.9086814955E-03       5    8    1        -0.5208895980E-01      0.1274781705E+00
          0                 5           1             4    7     1       0.1120443249E-04       5    8    1         0.6595391055E-03      0.1665391573E-02

    ------------------------------------------------
       NWT REQUIRED            5 OUTER ITERATIONS 
       AND A TOTAL OF          9 INNER ITERATIONS.
    ------------------------------------------------

 NO OUTPUT CONTROL FOR STRESS PERIOD   20   TIME STEP   20
 
 SOLVING FOR HEAD 
                                                   Max.-Head-Change                         Max.-Flux-Residual
  Residual-Control   Outer-Iter.   Inner-Iter.     Column Row Layer    Maximum-Head-Change  Column Row Layer    Maximum-Flux-Residual          L2-NORM 
          0                 1           2             5    8     1       0.6023790404E-01       5    8    1         0.3297386159E+01      0.7553987109E+01
          0                 2           2             4    7     1      -0.2610399750E+00       5    8    1        -0.1419807923E+02      0.3462287867E+02
          0                 3           2             4    7     1       0.1777551577E-01       5    8    1         0.9937707010E+00      0.2425460305E+01
          0                 4           2             4    7     1      -0.7073060192E-03       5    8    1        -0.4063789340E-01      0.9934337019E-01
          0                 5           1             4    7     1       0.8721387411E-05       5    8    1         0.5144998318E-03      0.1287420485E-02

    ------------------------------------------------
       NWT REQUIRED            5 OUTER ITERATIONS 
       AND A TOTAL OF          9 INNER ITERATIONS.
    ------------------------------------------------

 NO OUTPUT CONTROL FOR STRESS PERIOD   20   TIME STEP   21
 
 SOLVING FOR HEAD 
                                                   Max.-Head-Change                         Max.-Flux-Residual
  Residual-Control   Outer-Iter.   Inner-Iter.     Column Row Layer    Maximum-Head-Change  Column Row Layer    Maximum-Flux-Residual          L2-NORM 
          0                 1           2             5    8     1       0.6474482129E-01       5    8    1         0.3544577700E+01      0.8101425766E+01
          0                 2           2             5    6     1      -0.9749835764E-01       5    8    1        -0.5374177358E+01      0.1303120829E+02
          0                 3           2             4    7     1       0.2285569273E-01       5    8    1         0.1275166974E+01      0.3113132599E+01
          0                 4           2             4    7     1      -0.9094521301E-03       5    8    1        -0.5214630208E-01      0.1276036226E+00
          0                 5           1             4    7     1       0.1121393482E-04       5    8    1         0.6602945946E-03      0.1666343332E-02

    ------------------------------------------------
       NWT REQUIRED            5 OUTER ITERATIONS 
       AND A TOTAL OF          9 INNER ITERATIONS.
    ------------------------------------------------

 NO OUTPUT CONTROL FOR STRESS PERIOD   20   TIME STEP   22
 
 SOLVING FOR HEAD 
                                                   Max.-Head-Change                         Max.-Flux-Residual
  Residual-Control   Outer-Iter.   Inner-Iter.     Column Row Layer    Maximum-Head-Change  Column Row Layer    Maximum-Flux-Residual          L2-NORM 
          0                 1           2             5    8     1       0.6374369515E-01       5    8    1         0.3487619056E+01      0.8031670820E+01
          0                 2           2             4    7     1      -0.2613236826E+00       5    8    1        -0.1421710204E+02      0.3466642021E+02
          0                 3           2             4    7     1       0.1779483591E-01       5    8    1         0.9951081849E+00      0.2428488530E+01
          0                 4           2             4    7     1      -0.7080747812E-03       5    8    1        -0.4069316242E-01      0.9946565136E-01
          0                 5           1             4    7     1       0.8730866331E-05       5    8    1         0.5152387189E-03      0.1288543839E-02

    ------------------------------------------------
       NWT REQUIRED            5 OUTER ITERATIONS 
       AND A TOTAL OF          9 INNER ITERATIONS.
    ------------------------------------------------

 NO OUTPUT CONTROL FOR STRESS PERIOD   20   TIME STEP   23
 
 SOLVING FOR HEAD 
                                                   Max.-Head-Change                         Max.-Flux-Residual
  Residual-Control   Outer-Iter.   Inner-Iter.     Column Row Layer    Maximum-Head-Change  Column Row Layer    Maximum-Flux-Residual          L2-NORM 
          0                 1           2             5    8     1       0.6810484571E-01       5    8    1         0.3726752925E+01      0.8562225878E+01
          0                 2           2             5    6     1      -0.9782543742E-01       5    8    1        -0.5392394395E+01      0.1307396466E+02
          0                 3           2             4    7     1       0.2287499697E-01       5    8    1         0.1276442188E+01      0.3116062429E+01
          0                 4           2             4    7     1      -0.9102202608E-03       5    8    1        -0.5219882878E-01      0.1277224851E+00
          0                 5           1             4    7     1       0.1122340612E-04       5    8    1         0.6609854318E-03      0.1668092450E-02

    ------------------------------------------------
       NWT REQUIRED            5 OUTER ITERATIONS 
       AND A TOTAL OF          9 INNER ITERATIONS.
    ------------------------------------------------

 NO OUTPUT CONTROL FOR STRESS PERIOD   20   TIME STEP   24
 
 SOLVING FOR HEAD 
                                                   Max.-Head-Change                         Max.-Flux-Residual
  Residual-Control   Outer-Iter.   Inner-Iter.     Column Row Layer    Maximum-Head-Change  Column Row Layer    Maximum-Flux-Residual          L2-NORM 
          0                 1           2             5    8     1       0.6696660556E-01       5    8    1         0.3662220676E+01      0.8477639119E+01
          0                 2           2             4    7     1      -0.2616058588E+00       5    8    1        -0.1423456174E+02      0.3470760452E+02
          0                 3           2             4    7     1       0.1781405141E-01       5    8    1         0.9963355240E+00      0.2431352433E+01
          0                 4           2             4    7     1      -0.7088393821E-03       5    8    1        -0.4074385576E-01      0.9958123366E-01
          0                 5           1             4    7     1       0.8740294395E-05       5    8    1         0.5159148177E-03      0.1289488327E-02

    ------------------------------------------------
       NWT REQUIRED            5 OUTER ITERATIONS 
       AND A TOTAL OF          9 INNER ITERATIONS.
    ------------------------------------------------

 NO OUTPUT CONTROL FOR STRESS PERIOD   20   TIME STEP   25
 
 SOLVING FOR HEAD 
                                                   Max.-Head-Change                         Max.-Flux-Residual
  Residual-Control   Outer-Iter.   Inner-Iter.     Column Row Layer    Maximum-Head-Change  Column Row Layer    Maximum-Flux-Residual          L2-NORM 
          0                 1           2             5    8     1       0.7119837134E-01       5    8    1         0.3894212031E+01      0.8992782766E+01
          0                 2           2             5    6     1      -0.9812780785E-01       5    8    1        -0.5409139836E+01      0.1311440755E+02
          0                 3           2             4    7     1       0.2289415938E-01       5    8    1         0.1277614391E+01      0.3118836554E+01
          0                 4           2             4    7     1      -0.9109827497E-03       5    8    1        -0.5224709610E-01      0.1278350036E+00
          0                 5           1             4    7     1       0.1123280752E-04       5    8    1         0.6616191804E-03      0.1668996791E-02

    ------------------------------------------------
       NWT REQUIRED            5 OUTER ITERATIONS 
       AND A TOTAL OF          9 INNER ITERATIONS.
    ------------------------------------------------

 NO OUTPUT CONTROL FOR STRESS PERIOD   20   TIME STEP   26
 
 SOLVING FOR HEAD 
                                                   Max.-Head-Change                         Max.-Flux-Residual
  Residual-Control   Outer-Iter.   Inner-Iter.     Column Row Layer    Maximum-Head-Change  Column Row Layer    Maximum-Flux-Residual          L2-NORM 
          0                 1           2             5    8     1       0.6993866541E-01       5    8    1         0.3822980262E+01      0.8894944451E+01
          0                 2           2             4    7     1      -0.2618854465E+00       5    8    1        -0.1425063726E+02      0.3474661093E+02
          0                 3           2             4    7     1       0.1783309033E-01       5    8    1         0.9974653351E+00      0.2434064333E+01
          0                 4           2             4    7     1      -0.7095969584E-03       5    8    1        -0.4079049847E-01      0.9969074359E-01
          0                 5           1             4    7     1       0.8749635424E-05       5    8    1         0.5165353759E-03      0.1290511680E-02

    ------------------------------------------------
       NWT REQUIRED            5 OUTER ITERATIONS 
       AND A TOTAL OF          9 INNER ITERATIONS.
    ------------------------------------------------

 NO OUTPUT CONTROL FOR STRESS PERIOD   20   TIME STEP   27
 
 SOLVING FOR HEAD 
                                                   Max.-Head-Change                         Max.-Flux-Residual
  Residual-Control   Outer-Iter.   Inner-Iter.     Column Row Layer    Maximum-Head-Change  Column Row Layer    Maximum-Flux-Residual          L2-NORM 
          0                 1           2             5    8     1       0.7405571681E-01       5    8    1         0.4048647287E+01      0.9396015745E+01
          0                 2           2             5    6     1      -0.9840809446E-01       5    8    1        -0.5424582909E+01      0.1315271458E+02
          0                 3           2             4    7     1       0.2291311338E-01       5    8    1         0.1278695428E+01      0.3121466521E+01
          0                 4           2             4    7     1      -0.9117369482E-03       5    8    1        -0.5229159434E-01      0.1279417010E+00
          0                 5           1             4    7     1       0.1124210756E-04       5    8    1         0.6622023993E-03      0.1670996935E-02

    ------------------------------------------------
       NWT REQUIRED            5 OUTER ITERATIONS 
       AND A TOTAL OF          9 INNER ITERATIONS.
    ------------------------------------------------

 NO OUTPUT CONTROL FOR STRESS PERIOD   20   TIME STEP   28
 
 SOLVING FOR HEAD 
                                                   Max.-Head-Change                         Max.-Flux-Residual
  Residual-Control   Outer-Iter.   Inner-Iter.     Column Row Layer    Maximum-Head-Change  Column Row Layer    Maximum-Flux-Residual          L2-NORM 
          0                 1           2             5    8     1       0.7268778536E-01       5    8    1         0.3971454138E+01      0.9286282396E+01
          0                 2           2             4    7     1      -0.2621615454E+00       5    8    1        -0.1426548421E+02      0.3478360308E+02
          0                 3           2             4    7     1       0.1785189142E-01       5    8    1         0.9985085896E+00      0.2436635687E+01
          0                 4           2             4    7     1      -0.7103450721E-03       5    8    1        -0.4083354686E-01      0.9979459809E-01
          0                 5           1             4    7     1       0.8758860518E-05       5    8    1         0.5171066964E-03      0.1291488396E-02

    ------------------------------------------------
       NWT REQUIRED            5 OUTER ITERATIONS 
       AND A TOTAL OF          9 INNER ITERATIONS.
    ------------------------------------------------

 NO OUTPUT CONTROL FOR STRESS PERIOD   20   TIME STEP   29
 
 SOLVING FOR HEAD 
                                                   Max.-Head-Change                         Max.-Flux-Residual
  Residual-Control   Outer-Iter.   Inner-Iter.     Column Row Layer    Maximum-Head-Change  Column Row Layer    Maximum-Flux-Residual          L2-NORM 
          0                 1           2             5    8     1       0.7669896384E-01       5    8    1         0.4191482335E+01      0.9744788839E+01
          0                 2           2             5    6     1      -0.1065847936E+00       5    8    1        -0.5874136222E+01      0.1423666059E+02
          0                 3           2             5    6     1       0.7257987050E-02       5    8    1         0.4111869686E+00      0.1001677442E+01
          0                 4           2             5    6     1      -0.2888022949E-03       5    8    1        -0.1681758318E-01      0.4135269881E-01
          0                 5           1             7   13     1      -0.4872650800E-05       7   13    1        -0.2870086255E-03      0.5908310584E-03

    ------------------------------------------------
       NWT REQUIRED            5 OUTER ITERATIONS 
       AND A TOTAL OF          9 INNER ITERATIONS.
    ------------------------------------------------

 NO OUTPUT CONTROL FOR STRESS PERIOD   20   TIME STEP   30



 STREAM LISTING     PERIOD     20   STEP       30

 LAYER ROW COL. STREAM  RCH.  FLOW INTO     FLOW TO   FLOW OUT OF   OVRLND.     DIRECT     STREAM       STREAM     STREAM     STREAM   STREAMBED  STREAMBED
                SEG.NO.  NO.  STRM. RCH.    AQUIFER    STRM. RCH.    RUNOFF     PRECIP       ET          HEAD       DEPTH      WIDTH   CONDCTNC.   GRADIENT

   1    1    1     1     1    3.2276E+01  2.7609E-01   3.2000E+01  0.000E+00  0.000E+00  0.000E+00  1.09432E+03  1.269E+00  1.437E+01  6.467E-02  1.423E+00
   1    2    2     1     2    3.2000E+01  4.2738E-01   3.1573E+01  0.000E+00  0.000E+00  0.000E+00  1.08932E+03  1.266E+00  1.431E+01  1.002E-01  1.422E+00
   1    3    3     1     3    3.1573E+01  3.6428E-01   3.1209E+01  0.000E+00  0.000E+00  0.000E+00  1.08368E+03  1.263E+00  1.424E+01  8.546E-02  1.421E+00
   1    3    4     1     4    3.1209E+01  3.3528E-01   3.0873E+01  0.000E+00  0.000E+00  0.000E+00  1.07867E+03  1.259E+00  1.418E+01  7.871E-02  1.420E+00
   1    4    5     2     1    2.8873E+01  3.3633E-01   2.8537E+01  0.000E+00  0.000E+00  0.000E+00  1.07325E+03  1.312E+00  1.200E+01  7.800E-02  1.437E+00
   1    5    6     2     2    2.8537E+01  2.5823E-01   2.8279E+01  0.000E+00  0.000E+00  0.000E+00  1.06781E+03  1.304E+00  1.200E+01  6.000E-02  1.435E+00
   1    6    6     2     3    2.8279E+01  2.5780E-01   2.8021E+01  0.000E+00  0.000E+00  0.000E+00  1.06309E+03  1.297E+00  1.200E+01  6.000E-02  1.432E+00
   1    7    6     2     4    2.8021E+01  2.5737E-01   2.7764E+01  0.000E+00  0.000E+00  0.000E+00  1.05836E+03  1.290E+00  1.200E+01  6.000E-02  1.430E+00
   1    8    6     2     5    2.7764E+01  2.5694E-01   2.7507E+01  0.000E+00  0.000E+00  0.000E+00  1.05364E+03  1.282E+00  1.200E+01  6.000E-02  1.427E+00
   1    3    5     3     1    2.0000E+00  2.8252E-01   1.7175E+00  0.000E+00  0.000E+00  0.000E+00  1.07555E+03  1.909E+00  9.636E+00  7.227E-02  1.955E+00
   1    3    6     3     2    1.7175E+00  2.4905E-01   1.4684E+00  0.000E+00  0.000E+00  0.000E+00  1.07264E+03  1.727E+00  8.909E+00  6.682E-02  1.864E+00
   1    3    7     3     3    1.4684E+00  1.9718E-01   1.2712E+00  0.000E+00  0.000E+00  0.000E+00  1.06987E+03  1.555E+00  8.218E+00  5.547E-02  1.777E+00
   1    4    8     3     4    1.2712E+00  2.2567E-01   1.0456E+00  0.000E+00  0.000E+00  0.000E+00  1.06682E+03  1.364E+00  7.455E+00  6.709E-02  1.682E+00
   1    5    8     3     5    1.0456E+00  1.5790E-01   8.8768E-01  0.000E+00  0.000E+00  0.000E+00  1.06362E+03  1.164E+00  6.655E+00  4.991E-02  1.582E+00
   1    6    8     3     6    8.8768E-01  5.5980E-02   8.3170E-01  0.000E+00  0.000E+00  0.000E+00  1.06158E+03  1.036E+00  6.145E+00  1.844E-02  1.518E+00
   1    5   10     4     1    1.0000E+01  9.0919E-02   9.9091E+00  0.000E+00  0.000E+00  0.000E+00  1.07836E+03  6.368E-01  1.000E+01  2.500E-02  1.212E+00
   1    5    9     4     2    9.9091E+00  1.8158E-01   9.7275E+00  0.000E+00  0.000E+00  0.000E+00  1.07154E+03  6.315E-01  1.000E+01  5.000E-02  1.211E+00
   1    6    8     4     3    9.7275E+00  1.2689E-01   9.6006E+00  0.000E+00  0.000E+00  0.000E+00  1.06381E+03  6.256E-01  1.000E+01  3.500E-02  1.209E+00
   1    6    8     5     1    1.0432E+01  2.2686E-01   1.0205E+01  0.000E+00  0.000E+00  0.000E+00  1.05868E+03  6.790E-01  1.542E+01  6.166E-02  1.226E+00
   1    7    7     5     2    1.0205E+01  2.7894E-01   9.9265E+00  0.000E+00  0.000E+00  0.000E+00  1.05417E+03  6.732E-01  1.519E+01  7.594E-02  1.224E+00
   1    8    7     5     3    9.9265E+00  1.9221E-01   9.7343E+00  0.000E+00  0.000E+00  0.000E+00  1.04992E+03  6.676E-01  1.497E+01  5.241E-02  1.223E+00
   1    8    6     5     4    9.7343E+00  1.3577E-01   9.5985E+00  0.000E+00  0.000E+00  0.000E+00  1.04691E+03  6.637E-01  1.482E+01  3.706E-02  1.221E+00
   1    9    6     6     1    9.5985E+00  2.2097E-01   9.3776E+00  0.000E+00  0.000E+00  0.000E+00  1.04341E+03  6.828E-01  1.200E+01  6.000E-02  1.228E+00
   1   10    7     6     2    9.3776E+00  2.2039E-01   9.1572E+00  0.000E+00  0.000E+00  0.000E+00  1.03885E+03  6.732E-01  1.200E+01  6.000E-02  1.224E+00
   1   11    7     6     3    9.1572E+00  2.1981E-01   8.9374E+00  0.000E+00  0.000E+00  0.000E+00  1.03430E+03  6.636E-01  1.200E+01  6.000E-02  1.221E+00
   1   12    7     6     4    8.9374E+00  2.1923E-01   8.7181E+00  0.000E+00  0.000E+00  0.000E+00  1.02974E+03  6.539E-01  1.200E+01  6.000E-02  1.218E+00
   1   13    7     6     5    8.7181E+00 -1.2003E-01   8.8382E+00  0.000E+00  0.000E+00  0.000E+00  1.02656E+03  6.516E-01  1.200E+01  2.400E-01 -1.667E-01
   1   14    9     7     1    1.5000E+02  1.3369E+00   1.4866E+02  0.000E+00  0.000E+00  0.000E+00  1.03987E+03  2.288E+00  5.529E+01  5.593E-01  7.968E-01
   1   13    8     7     2    1.4866E+02  1.8304E+00   1.4683E+02  0.000E+00  0.000E+00  0.000E+00  1.03478E+03  2.279E+00  5.526E+01  6.148E-01  9.925E-01
   1   13    7     7     3    1.4683E+02  1.4682E+00   1.4536E+02  0.000E+00  0.000E+00  0.000E+00  1.02969E+03  2.270E+00  5.522E+01  5.585E-01  8.763E-01
   1   13    6     8     1    1.5420E+02  8.2678E-01   1.5338E+02  0.000E+00  0.000E+00  0.000E+00  1.02472E+03  2.843E+00  4.123E+01  4.201E-01  6.560E-01
   1   13    5     8     2    1.5338E+02  1.0412E-01   1.5327E+02  0.000E+00  0.000E+00  0.000E+00  1.01847E+03  2.840E+00  4.118E+01  4.197E-01  8.271E-02
   1   13    4     8     3    1.5327E+02 -2.6541E+00   1.5593E+02  0.000E+00  0.000E+00  0.000E+00  1.01222E+03  2.849E+00  4.131E+01  4.210E+00 -2.102E-01
   1   13    3     8     4    1.5593E+02 -3.7642E+00   1.5969E+02  0.000E+00  0.000E+00  0.000E+00  1.00600E+03  2.871E+00  4.163E+01  4.242E+00 -2.958E-01
   1   13    2     8     5    1.5969E+02 -2.6474E+00   1.6234E+02  0.000E+00  0.000E+00  0.000E+00  9.99768E+02  2.893E+00  4.194E+01  4.274E+00 -2.065E-01
   1   13    1     8     6    1.6234E+02 -2.0451E+00   1.6438E+02  0.000E+00  0.000E+00  0.000E+00  9.94783E+02  2.908E+00  4.217E+01  2.578E+00 -2.644E-01
   1    8    6     9     1    2.7507E+01  0.0000E+00   2.7507E+01  0.000E+00  0.000E+00  0.000E+00  1.08291E+03  4.158E+00  4.000E+00  0.000E+00  2.386E+00
   1    8    5     9     2    2.7507E+01  0.0000E+00   2.7507E+01  0.000E+00  0.000E+00  0.000E+00  1.08241E+03  4.158E+00  4.000E+00  0.000E+00  2.386E+00





UNSATURATED ZONE PACKAGE VOLUMETRIC BUDGET FOR  TIME STEP    30 STRESS PERIOD   20
  ------------------------------------------------------------------------------



     CUMULATIVE VOLUMES      L**3       RATES FOR THIS TIME STEP      L**3/T
     ------------------                 ------------------------

           IN:                                      IN:
           ---                                      ---
        INFILTRATION =  1023386429.2927          INFILTRATION =          64.6447

          OUT:                                     OUT:
          ----                                     ----
              UZF ET =   805465915.7130                UZF ET =          64.1075
        UZF RECHARGE =      627361.4960          UZF RECHARGE =       0.0000E+00

            IN - OUT =   217293152.0837              IN - OUT =           0.5372

          STORAGE:                                 STORAGE:
          --------                                 --------
      STORAGE CHANGE =   217293676.9147        STORAGE CHANGE =           0.5372

 PERCENT DISCREPANCY IS DIFFERENCE BETWEEN IN-OUT MINUS CHANGE IN STORAGE
 DIVIDED BY THE AVERAGE OF IN AND OUT TIMES 100

 PERCENT DISCREPANCY =          -0.00     PERCENT DISCREPANCY =           0.00






1
  VOLUMETRIC BUDGET FOR AGRICULTURAL FIELDS AT  END OF TIME STEP   30, STRESS PERIOD  20
  ------------------------------------------------------------------------------

     CUMULATIVE VOLUMES      L**3       RATES FOR THIS TIME STEP      L**3/T
     ------------------                 ------------------------

           IN:                                      IN:
           ---                                      ---
               AG WELLS  =   287281120.0000                 AG WELLS  =          32.7300
      DIVERSION SEGMENTS =   515922016.0000        DIVERSION SEGMENTS =          27.5067
           GW IRRIGATION =           0.0000             GW IRRIGATION =           0.0000
           SW IRRIGATION =           0.0000             SW IRRIGATION =           0.0000
        SYSTEM LOSSES GW =           0.0000          SYSTEM LOSSES GW =           0.0000
        SYSTEM LOSSES SW =           0.0000          SYSTEM LOSSES SW =           0.0000

                TOTAL IN =   803203136.0000                  TOTAL IN =          60.2367

          OUT:                                     OUT:
          ----                                     ----
               AG WELLS  =           0.0000                 AG WELLS  =           0.0000
      DIVERSION SEGMENTS =           0.0000        DIVERSION SEGMENTS =           0.0000
           GW IRRIGATION =   287281120.0000             GW IRRIGATION =          32.7300
           SW IRRIGATION =   515932320.0000             SW IRRIGATION =          27.5073
        SYSTEM LOSSES GW =           0.0000          SYSTEM LOSSES GW =           0.0000
        SYSTEM LOSSES SW =           0.0000          SYSTEM LOSSES SW =           0.0000

               TOTAL OUT =   803213440.0000                 TOTAL OUT =          60.2372

                IN - OUT =      -10304.0000                  IN - OUT =      -5.4932E-04

     PERCENT DISCREPANCY =          -0.00         PERCENT DISCREPANCY =          -0.00



1
  VOLUMETRIC BUDGET FOR ENTIRE MODEL AT END OF TIME STEP   30, STRESS PERIOD  20
  ------------------------------------------------------------------------------

     CUMULATIVE VOLUMES      L**3       RATES FOR THIS TIME STEP      L**3/T
     ------------------                 ------------------------

           IN:                                      IN:
           ---                                      ---
             STORAGE     =   408229504.0000               STORAGE     =          32.6898
       CONSTANT HEAD     =           0.0000         CONSTANT HEAD     =           0.0000
     HEAD DEP BOUNDS     =    14303970.0000       HEAD DEP BOUNDS     =           0.2858
      STREAM LEAKAGE     =   602282880.0000        STREAM LEAKAGE     =          11.6180
        UZF RECHARGE     =      627361.5000          UZF RECHARGE     =           0.0000
               GW ET     =           0.0000                 GW ET     =           0.0000
     SURFACE LEAKAGE     =           0.0000       SURFACE LEAKAGE     =           0.0000
           AG WELLS      =           0.0000             AG WELLS      =           0.0000

                TOTAL IN =  1025443776.0000                  TOTAL IN =          44.5936

          OUT:                                     OUT:
          ----                                     ----
             STORAGE     =   179779744.0000               STORAGE     =           0.3449
       CONSTANT HEAD     =           0.0000         CONSTANT HEAD     =           0.0000
     HEAD DEP BOUNDS     =    14577274.0000       HEAD DEP BOUNDS     =           0.2879
      STREAM LEAKAGE     =   541784576.0000        STREAM LEAKAGE     =          11.2308
        UZF RECHARGE     =           0.0000          UZF RECHARGE     =           0.0000
               GW ET     =     2023766.7500                 GW ET     =           0.0000
     SURFACE LEAKAGE     =           0.0000       SURFACE LEAKAGE     =           0.0000
           AG WELLS      =   287281120.0000             AG WELLS      =          32.7300

               TOTAL OUT =  1025446400.0000                 TOTAL OUT =          44.5936

                IN - OUT =       -2624.0000                  IN - OUT =       2.6703E-05

     PERCENT DISCREPANCY =          -0.00         PERCENT DISCREPANCY =           0.00






         TIME SUMMARY AT END OF TIME STEP   30 IN STRESS PERIOD   20
                    SECONDS     MINUTES      HOURS       DAYS        YEARS
                    -----------------------------------------------------------
   TIME STEP LENGTH  87667.      1461.1      24.352      1.0147     2.77799E-03
 STRESS PERIOD TIME 2.63000E+06  43833.      730.56      30.440     8.33397E-02
         TOTAL TIME 5.00565E+07 8.34276E+05  13905.      579.36      1.5862    
1
1
                            STRESS PERIOD NO.   21, LENGTH =   2630000.    
                            -----------------------------------------------

                              NUMBER OF TIME STEPS =    30

                               MULTIPLIER FOR DELT =     1.000

                            INITIAL TIME STEP SIZE =   87666.66    

 REUSING NON-PARAMETER GHB CELLS FROM LAST STRESS PERIOD

      2 GHB CELLS

 REUSING STREAM SEGMENT DATA FROM LAST STRESS PERIOD



            AREAL INFILTRATION RATE
 READING ON UNIT   19 WITH FORMAT: (10F4.0)            

            1           2           3           4           5           6           7           8           9          10
 ........................................................................................................................
   1   1.2000E-09   0.000       0.000       0.000       0.000       0.000       0.000       0.000       0.000       0.000    
   2   2.1000E-09  2.0000E-09  8.0000E-10  8.5000E-09   0.000       0.000       0.000       0.000       0.000       0.000    
   3   5.0000E-10  1.1000E-09  8.8000E-09  5.5000E-09   0.000       0.000       0.000       0.000       0.000       0.000    
   4   8.5000E-09  1.1000E-09  1.1000E-09  1.1000E-09  2.0000E-09   0.000       0.000       0.000       0.000       0.000    
   5   8.5000E-09  1.1000E-09  1.1000E-09  1.1000E-09  1.1000E-09   0.000       0.000       0.000       0.000       0.000    
   6   8.5000E-09  5.2000E-09  2.1000E-09  1.1000E-09  1.5000E-09   0.000       0.000       0.000       0.000       0.000    
   7   8.5000E-09  5.2000E-09  2.1000E-09  1.2000E-09  2.0000E-09   0.000       0.000       0.000       0.000       0.000    
   8   5.0000E-10  5.2000E-09  2.1000E-09  1.2000E-09  5.0000E-09   0.000       0.000       0.000       0.000       0.000    
   9   5.0000E-10  5.2000E-09  2.1000E-09  1.2000E-09  5.0000E-09   0.000       0.000       0.000       0.000       0.000    
  10   5.0000E-10  5.2000E-09  2.1000E-09  1.2000E-09  5.8000E-09   0.000       0.000       0.000       0.000       0.000    
  11   1.0000E-10  1.1000E-09  1.1000E-09  1.2000E-09  5.0000E-09   0.000       0.000       0.000       0.000       0.000    
  12   1.1000E-09  1.1000E-09  1.1000E-09  1.1000E-09  2.0000E-09   0.000       0.000       0.000       0.000       0.000    
  13   1.1000E-09  2.2000E-09  2.2000E-09  2.1000E-09  1.0000E-09   0.000       0.000       0.000       0.000       0.000    
  14   2.0000E-10  5.5000E-09  5.5000E-09  5.2000E-09  1.0000E-09   0.000       0.000       0.000       0.000       0.000    
  15    0.000      8.8000E-09  8.8000E-09   0.000       0.000       0.000       0.000       0.000       0.000       0.000    

                  ET RATE =  3.250000E-07

 USING ET EXTINCTION DEPTH FROM PREVIOUS STRESS PERIOD. CURRENT PERIOD IS:      21

 USING EXTINCTION WATER CONTENT FROM PREVIOUS STRESS PERIOD. CURRENT PERIOD IS:      21

 USING AIR ENTRY PRESSURE FROM PREVIOUS STRESS PERIOD. CURRENT PERIOD IS:      21

 USING ROOT PRESSURE HEAD FROM PREVIOUS STRESS PERIOD. CURRENT PERIOD IS:      21

 USING ROOT ACTIVITY FROM PREVIOUS STRESS PERIOD. CURRENT PERIOD IS:      21

 PROCESSING AG STRESS PERIOD DATA

 READING AG STRESS PERIOD DATA

 READING IRRIGATION SEGMENT

 READING IRRIGATION WELL

 READING SUPPLEMENTAL WELL

 END PROCESSING AG STRESS PERIOD DATA OPTIONS
 
 SOLVING FOR HEAD 
                                                   Max.-Head-Change                         Max.-Flux-Residual
  Residual-Control   Outer-Iter.   Inner-Iter.     Column Row Layer    Maximum-Head-Change  Column Row Layer    Maximum-Flux-Residual          L2-NORM 
          0                 1           2             5    8     1       0.7595150272E-01       5    8    1         0.4148662731E+01      0.9693149861E+01
          0                 2           2             4    7     1      -0.2310697828E+00       5    8    1        -0.1259912050E+02      0.3068251484E+02
          0                 3           2             4    7     1       0.1573473936E-01       5    8    1         0.8818973730E+00      0.2150185118E+01
          0                 4           2             4    7     1      -0.6261012205E-03       5    8    1        -0.3606704134E-01      0.8812738799E-01
          0                 5           1             4    7     1       0.7720097659E-05       5    8    1         0.4568987401E-03      0.1150692991E-02

    ------------------------------------------------
       NWT REQUIRED            5 OUTER ITERATIONS 
       AND A TOTAL OF          9 INNER ITERATIONS.
    ------------------------------------------------

 NO OUTPUT CONTROL FOR STRESS PERIOD   21   TIME STEP    1
 
 SOLVING FOR HEAD 
                                                   Max.-Head-Change                         Max.-Flux-Residual
  Residual-Control   Outer-Iter.   Inner-Iter.     Column Row Layer    Maximum-Head-Change  Column Row Layer    Maximum-Flux-Residual          L2-NORM 
          0                 1           2             5    8     1       0.7891724009E-01       5    8    1         0.4310778547E+01      0.1006562994E+02
          0                 2           2             5    8     1      -0.3874329677E-01       5    8    1        -0.2141849820E+01      0.5090891720E+01
          0                 3           2             4    7     1       0.3205149395E-01       5    8    1         0.1782688798E+01      0.4368430295E+01
          0                 4           2             4    7     1      -0.1279333122E-02       5    8    1        -0.7312388424E-01      0.1786751199E+00
          0                 5           2             4   13     1      -0.1679559740E-03       4   13    1        -0.1043263635E-01      0.1888079686E-01
          0                 6           2             4   13     1      -0.1667701401E-03       4   13    1        -0.1035789538E-01      0.2522789492E-01
          0                 7           2             4    7     1       0.2627797646E-03       5    6    1         0.1531643260E-01      0.4123046972E-01
          0                 8           2             4    7     1       0.9963072253E-03       5    8    1         0.5807025635E-01      0.1428833488E+00
          0                 9           1             4    7     1       0.1462332589E-04       5    8    1         0.8530530063E-03      0.2095158692E-02

    ------------------------------------------------
       NWT REQUIRED            9 OUTER ITERATIONS 
       AND A TOTAL OF         17 INNER ITERATIONS.
    ------------------------------------------------

 NO OUTPUT CONTROL FOR STRESS PERIOD   21   TIME STEP    2
 
 SOLVING FOR HEAD 
                                                   Max.-Head-Change                         Max.-Flux-Residual
  Residual-Control   Outer-Iter.   Inner-Iter.     Column Row Layer    Maximum-Head-Change  Column Row Layer    Maximum-Flux-Residual          L2-NORM 
          0                 1           2             5    8     1       0.7514656196E-01       5    8    1         0.4101018427E+01      0.9686493391E+01
          0                 2           2             5    7     1      -0.1590486838E+00       5    8    1        -0.8717041618E+01      0.2120003863E+02
          0                 3           2             5    7     1       0.1083051173E-01       5    8    1         0.6101868323E+00      0.1487537728E+01
          0                 4           2             5    7     1      -0.4309567363E-03       5    8    1        -0.2495670564E-01      0.6110945511E-01
          0                 5           1             5    7     1       0.5313888376E-05       5    8    1         0.3162783346E-03      0.8223420827E-03

    ------------------------------------------------
       NWT REQUIRED            5 OUTER ITERATIONS 
       AND A TOTAL OF          9 INNER ITERATIONS.
    ------------------------------------------------

 NO OUTPUT CONTROL FOR STRESS PERIOD   21   TIME STEP    3
 
 SOLVING FOR HEAD 
                                                   Max.-Head-Change                         Max.-Flux-Residual
  Residual-Control   Outer-Iter.   Inner-Iter.     Column Row Layer    Maximum-Head-Change  Column Row Layer    Maximum-Flux-Residual          L2-NORM 
          0                 1           2             5    8     1       0.7611637105E-01       5    8    1         0.4153148517E+01      0.9829786192E+01
          0                 2           2             5    6     1      -0.4770222935E-01       5    8    1        -0.2634185270E+01      0.6322087094E+01
          0                 3           2             4    7     1       0.3272826864E-01       5    8    1         0.1818300405E+01      0.4455498715E+01
          0                 4           2             4    7     1      -0.1302294245E-02       5    8    1        -0.7435420383E-01      0.1832030494E+00
          0                 5           1             4    7     1       0.1605784299E-04       5    8    1         0.9413003254E-03      0.2484958951E-02

    ------------------------------------------------
       NWT REQUIRED            5 OUTER ITERATIONS 
       AND A TOTAL OF          9 INNER ITERATIONS.
    ------------------------------------------------

 NO OUTPUT CONTROL FOR STRESS PERIOD   21   TIME STEP    4
 
 SOLVING FOR HEAD 
                                                   Max.-Head-Change                         Max.-Flux-Residual
  Residual-Control   Outer-Iter.   Inner-Iter.     Column Row Layer    Maximum-Head-Change  Column Row Layer    Maximum-Flux-Residual          L2-NORM 
          0                 1           2             5    8     1       0.7287637916E-01       5    8    1         0.3972938383E+01      0.9505908078E+01
          0                 2           2             4    7     1      -0.1689587035E+00       5    8    1        -0.9227947063E+01      0.2247286649E+02
          0                 3           2             4    7     1       0.1150532867E-01       5    8    1         0.6459477534E+00      0.1576396523E+01
          0                 4           2             4    7     1      -0.4578084228E-03       5    8    1        -0.2641916853E-01      0.6472590680E-01
          0                 5           1             4    7     1       0.5644975331E-05       5    8    1         0.3348010569E-03      0.8652313335E-03

    ------------------------------------------------
       NWT REQUIRED            5 OUTER ITERATIONS 
       AND A TOTAL OF          9 INNER ITERATIONS.
    ------------------------------------------------

 NO OUTPUT CONTROL FOR STRESS PERIOD   21   TIME STEP    5
 
 SOLVING FOR HEAD 
                                                   Max.-Head-Change                         Max.-Flux-Residual
  Residual-Control   Outer-Iter.   Inner-Iter.     Column Row Layer    Maximum-Head-Change  Column Row Layer    Maximum-Flux-Residual          L2-NORM 
          0                 1           2             5    8     1       0.7430839328E-01       5    8    1         0.4050796969E+01      0.9693272416E+01
          0                 2           2             5    6     1      -0.4614942921E-01       5    8    1        -0.2547230154E+01      0.6127662374E+01
          0                 3           2             4    7     1       0.3403229159E-01       5    8    1         0.1888934121E+01      0.4630820690E+01
          0                 4           2             4    7     1      -0.1354183065E-02       5    8    1        -0.7724172890E-01      0.1904359456E+00
          0                 5           1             4    7     1       0.1669765393E-04       5    6    1         0.9778432632E-03      0.2587388957E-02

    ------------------------------------------------
       NWT REQUIRED            5 OUTER ITERATIONS 
       AND A TOTAL OF          9 INNER ITERATIONS.
    ------------------------------------------------

 NO OUTPUT CONTROL FOR STRESS PERIOD   21   TIME STEP    6
 
 SOLVING FOR HEAD 
                                                   Max.-Head-Change                         Max.-Flux-Residual
  Residual-Control   Outer-Iter.   Inner-Iter.     Column Row Layer    Maximum-Head-Change  Column Row Layer    Maximum-Flux-Residual          L2-NORM 
          0                 1           2             5    8     1       0.7113421627E-01       5    8    1         0.3874403163E+01      0.9374120206E+01
          0                 2           2             4    7     1      -0.1662649440E+00       5    8    1        -0.9065561213E+01      0.2209426980E+02
          0                 3           2             4    7     1       0.1132189589E-01       5    8    1         0.6345785634E+00      0.1549916471E+01
          0                 4           2             4    7     1      -0.4505094499E-03       5    8    1        -0.2595392717E-01      0.6364443405E-01
          0                 5           1             4    7     1       0.5554975779E-05       5    8    1         0.3288887733E-03      0.8517850657E-03

    ------------------------------------------------
       NWT REQUIRED            5 OUTER ITERATIONS 
       AND A TOTAL OF          9 INNER ITERATIONS.
    ------------------------------------------------

 NO OUTPUT CONTROL FOR STRESS PERIOD   21   TIME STEP    7
 
 SOLVING FOR HEAD 
                                                   Max.-Head-Change                         Max.-Flux-Residual
  Residual-Control   Outer-Iter.   Inner-Iter.     Column Row Layer    Maximum-Head-Change  Column Row Layer    Maximum-Flux-Residual          L2-NORM 
          0                 1           2             5    8     1       0.7262529894E-01       5    8    1         0.3955690526E+01      0.9561825482E+01
          0                 2           2             5    6     1      -0.4640164773E-01       5    8    1        -0.2559761084E+01      0.6175204994E+01
          0                 3           2             4    7     1       0.3367031320E-01       5    8    1         0.1867769638E+01      0.4579967045E+01
          0                 4           2             4    7     1      -0.1339779501E-02       5    8    1        -0.7637595323E-01      0.1883373867E+00
          0                 5           1             4    7     1       0.1652005216E-04       5    6    1         0.9668965490E-03      0.2557421558E-02

    ------------------------------------------------
       NWT REQUIRED            5 OUTER ITERATIONS 
       AND A TOTAL OF          9 INNER ITERATIONS.
    ------------------------------------------------

 NO OUTPUT CONTROL FOR STRESS PERIOD   21   TIME STEP    8
 
 SOLVING FOR HEAD 
                                                   Max.-Head-Change                         Max.-Flux-Residual
  Residual-Control   Outer-Iter.   Inner-Iter.     Column Row Layer    Maximum-Head-Change  Column Row Layer    Maximum-Flux-Residual          L2-NORM 
          0                 1           2             5    8     1       0.6961060542E-01       5    8    1         0.3788256558E+01      0.9258053125E+01
          0                 2           2             4    7     1      -0.1672236911E+00       5    8    1        -0.9101298346E+01      0.2219790208E+02
          0                 3           2             4    7     1       0.1138717914E-01       5    8    1         0.6370765643E+00      0.1557120199E+01
          0                 4           2             4    7     1      -0.4531071501E-03       5    8    1        -0.2605574993E-01      0.6393520136E-01
          0                 5           1             4    7     1       0.5587006645E-05       5    6    1         0.3301704332E-03      0.8548784775E-03

    ------------------------------------------------
       NWT REQUIRED            5 OUTER ITERATIONS 
       AND A TOTAL OF          9 INNER ITERATIONS.
    ------------------------------------------------

 NO OUTPUT CONTROL FOR STRESS PERIOD   21   TIME STEP    9
 
 SOLVING FOR HEAD 
                                                   Max.-Head-Change                         Max.-Flux-Residual
  Residual-Control   Outer-Iter.   Inner-Iter.     Column Row Layer    Maximum-Head-Change  Column Row Layer    Maximum-Flux-Residual          L2-NORM 
          0                 1           2             5    8     1       0.7124916860E-01       5    8    1         0.3877823986E+01      0.9456367876E+01
          0                 2           2             5    6     1      -0.4616208950E-01       5    8    1        -0.2545540672E+01      0.6154469974E+01
          0                 3           2             4    7     1       0.3378743251E-01       5    8    1         0.1873208509E+01      0.4594415540E+01
          0                 4           2             4    7     1      -0.1344439862E-02       5    8    1        -0.7659797032E-01      0.1889334751E+00
          0                 5           1             4    7     1       0.1657751611E-04       5    6    1         0.9697094220E-03      0.2566197377E-02

    ------------------------------------------------
       NWT REQUIRED            5 OUTER ITERATIONS 
       AND A TOTAL OF          9 INNER ITERATIONS.
    ------------------------------------------------

 NO OUTPUT CONTROL FOR STRESS PERIOD   21   TIME STEP   10
 
 SOLVING FOR HEAD 
                                                   Max.-Head-Change                         Max.-Flux-Residual
  Residual-Control   Outer-Iter.   Inner-Iter.     Column Row Layer    Maximum-Head-Change  Column Row Layer    Maximum-Flux-Residual          L2-NORM 
          0                 1           2             5    6     1       0.6836656013E-01       5    8    1         0.3716357921E+01      0.9162597117E+01
          0                 2           2             4    7     1      -0.1671029016E+00       5    8    1        -0.9081207356E+01      0.2216252242E+02
          0                 3           2             4    7     1       0.1137895208E-01       5    8    1         0.6356676085E+00      0.1554615968E+01
          0                 4           2             4    7     1      -0.4527797957E-03       5    8    1        -0.2599786761E-01      0.6383059438E-01
          0                 5           1             4    7     1       0.5582969854E-05       5    6    1         0.3294587414E-03      0.8531822652E-03

    ------------------------------------------------
       NWT REQUIRED            5 OUTER ITERATIONS 
       AND A TOTAL OF          9 INNER ITERATIONS.
    ------------------------------------------------

 NO OUTPUT CONTROL FOR STRESS PERIOD   21   TIME STEP   11
 
 SOLVING FOR HEAD 
                                                   Max.-Head-Change                         Max.-Flux-Residual
  Residual-Control   Outer-Iter.   Inner-Iter.     Column Row Layer    Maximum-Head-Change  Column Row Layer    Maximum-Flux-Residual          L2-NORM 
          0                 1           2             5    8     1       0.7007627324E-01       5    8    1         0.3811414280E+01      0.9366659062E+01
          0                 2           2             5    6     1      -0.4609063387E-01       5    8    1        -0.2540769320E+01      0.6154944655E+01
          0                 3           2             4    7     1       0.3376371494E-01       5    8    1         0.1871004930E+01      0.4589894771E+01
          0                 4           2             4    7     1      -0.1343496134E-02       5    8    1        -0.7650755698E-01      0.1887516878E+00
          0                 5           1             4    7     1       0.1656587923E-04       5    6    1         0.9685656128E-03      0.2566526201E-02

    ------------------------------------------------
       NWT REQUIRED            5 OUTER ITERATIONS 
       AND A TOTAL OF          9 INNER ITERATIONS.
    ------------------------------------------------

 NO OUTPUT CONTROL FOR STRESS PERIOD   21   TIME STEP   12
 
 SOLVING FOR HEAD 
                                                   Max.-Head-Change                         Max.-Flux-Residual
  Residual-Control   Outer-Iter.   Inner-Iter.     Column Row Layer    Maximum-Head-Change  Column Row Layer    Maximum-Flux-Residual          L2-NORM 
          0                 1           2             5    6     1       0.6736853532E-01       5    8    1         0.3655513285E+01      0.9082461833E+01
          0                 2           2             4    7     1      -0.1672806368E+00       5    8    1        -0.9078875756E+01      0.2216863761E+02
          0                 3           2             4    7     1       0.1139105312E-01       5    8    1         0.6355020174E+00      0.1555013150E+01
          0                 4           2             4    7     1      -0.4532613176E-03       5    6    1        -0.2599125062E-01      0.6384467221E-01
          0                 5           1             4    7     1       0.5588907425E-05       5    6    1         0.3293662999E-03      0.8529945658E-03

    ------------------------------------------------
       NWT REQUIRED            5 OUTER ITERATIONS 
       AND A TOTAL OF          9 INNER ITERATIONS.
    ------------------------------------------------

 NO OUTPUT CONTROL FOR STRESS PERIOD   21   TIME STEP   13
 
 SOLVING FOR HEAD 
                                                   Max.-Head-Change                         Max.-Flux-Residual
  Residual-Control   Outer-Iter.   Inner-Iter.     Column Row Layer    Maximum-Head-Change  Column Row Layer    Maximum-Flux-Residual          L2-NORM 
          0                 1           2             5    6     1       0.6910586207E-01       5    8    1         0.3755702284E+01      0.9292131041E+01
          0                 2           2             5    6     1      -0.4599157403E-01       5    8    1        -0.2534654441E+01      0.6150368838E+01
          0                 3           2             4    7     1       0.3377993121E-01       5    8    1         0.1871120874E+01      0.4590956642E+01
          0                 4           2             4    7     1      -0.1344141425E-02       5    8    1        -0.7651202266E-01      0.1887952849E+00
          0                 5           1             4    7     1       0.1657383631E-04       5    6    1         0.9686197859E-03      0.2567152617E-02

    ------------------------------------------------
       NWT REQUIRED            5 OUTER ITERATIONS 
       AND A TOTAL OF          9 INNER ITERATIONS.
    ------------------------------------------------

 NO OUTPUT CONTROL FOR STRESS PERIOD   21   TIME STEP   14
 
 SOLVING FOR HEAD 
                                                   Max.-Head-Change                         Max.-Flux-Residual
  Residual-Control   Outer-Iter.   Inner-Iter.     Column Row Layer    Maximum-Head-Change  Column Row Layer    Maximum-Flux-Residual          L2-NORM 
          0                 1           2             5    6     1       0.6652348576E-01       5    6    1         0.3604698968E+01      0.9015970398E+01
          0                 2           2             4    7     1      -0.1673577872E+00       5    6    1        -0.9072703306E+01      0.2216360460E+02
          0                 3           2             4    7     1       0.1139630508E-01       5    6    1         0.6350756354E+00      0.1554628164E+01
          0                 4           2             4    7     1      -0.4534703066E-03       5    6    1        -0.2597399299E-01      0.6382632856E-01
          0                 5           1             4    7     1       0.5591484438E-05       5    6    1         0.3291250609E-03      0.8524862478E-03

    ------------------------------------------------
       NWT REQUIRED            5 OUTER ITERATIONS 
       AND A TOTAL OF          9 INNER ITERATIONS.
    ------------------------------------------------

 NO OUTPUT CONTROL FOR STRESS PERIOD   21   TIME STEP   15
 
 SOLVING FOR HEAD 
                                                   Max.-Head-Change                         Max.-Flux-Residual
  Residual-Control   Outer-Iter.   Inner-Iter.     Column Row Layer    Maximum-Head-Change  Column Row Layer    Maximum-Flux-Residual          L2-NORM 
          0                 1           2             5    6     1       0.6832803408E-01       5    8    1         0.3708850221E+01      0.9230018728E+01
          0                 2           2             5    6     1      -0.4591886666E-01       5    8    1        -0.2530127202E+01      0.6148224603E+01
          0                 3           2             4    7     1       0.3378364109E-01       5    8    1         0.1870645810E+01      0.4590453760E+01
          0                 4           2             4    7     1      -0.1344289066E-02       5    6    1        -0.7649300386E-01      0.1887744983E+00
          0                 5           1             4    7     1       0.1657565644E-04       5    6    1         0.9683667226E-03      0.2567078516E-02

    ------------------------------------------------
       NWT REQUIRED            5 OUTER ITERATIONS 
       AND A TOTAL OF          9 INNER ITERATIONS.
    ------------------------------------------------

 NO OUTPUT CONTROL FOR STRESS PERIOD   21   TIME STEP   16
 
 SOLVING FOR HEAD 
                                                   Max.-Head-Change                         Max.-Flux-Residual
  Residual-Control   Outer-Iter.   Inner-Iter.     Column Row Layer    Maximum-Head-Change  Column Row Layer    Maximum-Flux-Residual          L2-NORM 
          0                 1           2             5    6     1       0.6580917762E-01       5    6    1         0.3564286694E+01      0.8960936506E+01
          0                 2           2             4    7     1      -0.1674519398E+00       5    6    1        -0.9068978826E+01      0.2216261169E+02
          0                 3           2             4    7     1       0.1140271496E-01       5    6    1         0.6348118767E+00      0.1554527296E+01
          0                 4           2             4    7     1      -0.4537253688E-03       5    6    1        -0.2596290925E-01      0.6381982115E-01
          0                 5           1             4    7     1       0.5594629031E-05       5    6    1         0.3289645101E-03      0.8519915369E-03

    ------------------------------------------------
       NWT REQUIRED            5 OUTER ITERATIONS 
       AND A TOTAL OF          9 INNER ITERATIONS.
    ------------------------------------------------

 NO OUTPUT CONTROL FOR STRESS PERIOD   21   TIME STEP   17
 
 SOLVING FOR HEAD 
                                                   Max.-Head-Change                         Max.-Flux-Residual
  Residual-Control   Outer-Iter.   Inner-Iter.     Column Row Layer    Maximum-Head-Change  Column Row Layer    Maximum-Flux-Residual          L2-NORM 
          0                 1           2             5    6     1       0.6767238566E-01       5    8    1         0.3669663223E+01      0.9178677564E+01
          0                 2           2             5    6     1      -0.4585434088E-01       5    8    1        -0.2526162844E+01      0.6146208013E+01
          0                 3           2             4    7     1       0.3379020144E-01       5    8    1         0.1870414411E+01      0.4590456701E+01
          0                 4           2             4    7     1      -0.1344550130E-02       5    6    1        -0.7648393451E-01      0.1887739425E+00
          0                 5           1             4    7     1       0.1657887563E-04       5    6    1         0.9682386940E-03      0.2566605865E-02

    ------------------------------------------------
       NWT REQUIRED            5 OUTER ITERATIONS 
       AND A TOTAL OF          9 INNER ITERATIONS.
    ------------------------------------------------

 NO OUTPUT CONTROL FOR STRESS PERIOD   21   TIME STEP   18
 
 SOLVING FOR HEAD 
                                                   Max.-Head-Change                         Max.-Flux-Residual
  Residual-Control   Outer-Iter.   Inner-Iter.     Column Row Layer    Maximum-Head-Change  Column Row Layer    Maximum-Flux-Residual          L2-NORM 
          0                 1           2             5    6     1       0.6520814951E-01       5    6    1         0.3530205125E+01      0.8915737941E+01
          0                 2           2             4    7     1      -0.1675303327E+00       5    6    1        -0.9065478278E+01      0.2216114087E+02
          0                 3           2             4    7     1       0.1140805185E-01       5    6    1         0.6345641292E+00      0.1554394542E+01
          0                 4           2             4    7     1      -0.4539377353E-03       5    6    1        -0.2595251313E-01      0.6381193524E-01
          0                 5           1             4    7     1       0.5597248049E-05       5    6    1         0.3288148614E-03      0.8515632486E-03

    ------------------------------------------------
       NWT REQUIRED            5 OUTER ITERATIONS 
       AND A TOTAL OF          9 INNER ITERATIONS.
    ------------------------------------------------

 NO OUTPUT CONTROL FOR STRESS PERIOD   21   TIME STEP   19
 
 SOLVING FOR HEAD 
                                                   Max.-Head-Change                         Max.-Flux-Residual
  Residual-Control   Outer-Iter.   Inner-Iter.     Column Row Layer    Maximum-Head-Change  Column Row Layer    Maximum-Flux-Residual          L2-NORM 
          0                 1           2             5    6     1       0.6712193361E-01       5    8    1         0.3637016830E+01      0.9136533123E+01
          0                 2           2             5    7     1      -0.4584134203E-01       5    8    1        -0.2522911662E+01      0.6144875894E+01
          0                 3           2             4    7     1       0.3379522748E-01       5    8    1         0.1870173151E+01      0.4590355977E+01
          0                 4           2             4    7     1      -0.1344750140E-02       5    6    1        -0.7647429348E-01      0.1887696262E+00
          0                 5           1             4    7     1       0.1658134198E-04       5    6    1         0.9681048923E-03      0.2566664087E-02

    ------------------------------------------------
       NWT REQUIRED            5 OUTER ITERATIONS 
       AND A TOTAL OF          9 INNER ITERATIONS.
    ------------------------------------------------

 NO OUTPUT CONTROL FOR STRESS PERIOD   21   TIME STEP   20
 
 SOLVING FOR HEAD 
                                                   Max.-Head-Change                         Max.-Flux-Residual
  Residual-Control   Outer-Iter.   Inner-Iter.     Column Row Layer    Maximum-Head-Change  Column Row Layer    Maximum-Flux-Residual          L2-NORM 
          0                 1           2             5    6     1       0.6470513216E-01       5    6    1         0.3501598002E+01      0.8878982140E+01
          0                 2           2             4    7     1      -0.1676037545E+00       5    6    1        -0.9062645326E+01      0.2216041958E+02
          0                 3           2             4    7     1       0.1141305037E-01       5    6    1         0.6343633976E+00      0.1554316025E+01
          0                 4           2             4    7     1      -0.4541366374E-03       5    6    1        -0.2594406771E-01      0.6380665100E-01
          0                 5           1             4    7     1       0.5599700726E-05       5    6    1         0.3286918386E-03      0.8510632328E-03

    ------------------------------------------------
       NWT REQUIRED            5 OUTER ITERATIONS 
       AND A TOTAL OF          9 INNER ITERATIONS.
    ------------------------------------------------

 NO OUTPUT CONTROL FOR STRESS PERIOD   21   TIME STEP   21
 
 SOLVING FOR HEAD 
                                                   Max.-Head-Change                         Max.-Flux-Residual
  Residual-Control   Outer-Iter.   Inner-Iter.     Column Row Layer    Maximum-Head-Change  Column Row Layer    Maximum-Flux-Residual          L2-NORM 
          0                 1           2             5    6     1       0.6666270157E-01       5    8    1         0.3609975573E+01      0.9102289157E+01
          0                 2           2             5    7     1      -0.4584719190E-01       5    8    1        -0.2520203579E+01      0.6143969720E+01
          0                 3           2             4    7     1       0.3380009070E-01       5    8    1         0.1869987818E+01      0.4590325494E+01
          0                 4           2             4    7     1      -0.1344943668E-02       5    6    1        -0.7646681133E-01      0.1887682530E+00
          0                 5           1             4    7     1       0.1658372834E-04       5    6    1         0.9679996283E-03      0.2567182404E-02

    ------------------------------------------------
       NWT REQUIRED            5 OUTER ITERATIONS 
       AND A TOTAL OF          9 INNER ITERATIONS.
    ------------------------------------------------

 NO OUTPUT CONTROL FOR STRESS PERIOD   21   TIME STEP   22
 
 SOLVING FOR HEAD 
                                                   Max.-Head-Change                         Max.-Flux-Residual
  Residual-Control   Outer-Iter.   Inner-Iter.     Column Row Layer    Maximum-Head-Change  Column Row Layer    Maximum-Flux-Residual          L2-NORM 
          0                 1           2             5    6     1       0.6428696372E-01       5    6    1         0.3477727725E+01      0.8849462384E+01
          0                 2           2             4    7     1      -0.1676701178E+00       5    6    1        -0.9060249809E+01      0.2216000477E+02
          0                 3           2             4    7     1       0.1141756837E-01       5    6    1         0.6341935331E+00      0.1554258905E+01
          0                 4           2             4    7     1      -0.4543164175E-03       5    6    1        -0.2593690885E-01      0.6380208140E-01
          0                 5           1             4    7     1       0.5601917388E-05       5    6    1         0.3285867538E-03      0.8507148797E-03

    ------------------------------------------------
       NWT REQUIRED            5 OUTER ITERATIONS 
       AND A TOTAL OF          9 INNER ITERATIONS.
    ------------------------------------------------

 NO OUTPUT CONTROL FOR STRESS PERIOD   21   TIME STEP   23
 
 SOLVING FOR HEAD 
                                                   Max.-Head-Change                         Max.-Flux-Residual
  Residual-Control   Outer-Iter.   Inner-Iter.     Column Row Layer    Maximum-Head-Change  Column Row Layer    Maximum-Flux-Residual          L2-NORM 
          0                 1           2             5    6     1       0.6628271597E-01       5    8    1         0.3587753093E+01      0.9074866865E+01
          0                 2           2             5    7     1      -0.4585393926E-01       5    8    1        -0.2517982610E+01      0.6143483486E+01
          0                 3           2             4    7     1       0.3380444943E-01       5    8    1         0.1869830979E+01      0.4590307526E+01
          0                 4           2             4    7     1      -0.1345117120E-02       5    6    1        -0.7646039691E-01      0.1887672689E+00
          0                 5           1             4    7     1       0.1658586670E-04       5    6    1         0.9679089835E-03      0.2567061545E-02

    ------------------------------------------------
       NWT REQUIRED            5 OUTER ITERATIONS 
       AND A TOTAL OF          9 INNER ITERATIONS.
    ------------------------------------------------

 NO OUTPUT CONTROL FOR STRESS PERIOD   21   TIME STEP   24
 
 SOLVING FOR HEAD 
                                                   Max.-Head-Change                         Max.-Flux-Residual
  Residual-Control   Outer-Iter.   Inner-Iter.     Column Row Layer    Maximum-Head-Change  Column Row Layer    Maximum-Flux-Residual          L2-NORM 
          0                 1           2             5    6     1       0.6394257659E-01       5    6    1         0.3457974884E+01      0.8826201800E+01
          0                 2           2             4    7     1      -0.1677310475E+00       5    6    1        -0.9058276518E+01      0.2215996100E+02
          0                 3           2             4    7     1       0.1142171648E-01       5    6    1         0.6340534394E+00      0.1554229089E+01
          0                 4           2             4    7     1      -0.4544814792E-03       5    6    1        -0.2593098855E-01      0.6379889631E-01
          0                 5           1             4    7     1       0.5603952361E-05       5    6    1         0.3284988006E-03      0.8503916334E-03

    ------------------------------------------------
       NWT REQUIRED            5 OUTER ITERATIONS 
       AND A TOTAL OF          9 INNER ITERATIONS.
    ------------------------------------------------

 NO OUTPUT CONTROL FOR STRESS PERIOD   21   TIME STEP   25
 
 SOLVING FOR HEAD 
                                                   Max.-Head-Change                         Max.-Flux-Residual
  Residual-Control   Outer-Iter.   Inner-Iter.     Column Row Layer    Maximum-Head-Change  Column Row Layer    Maximum-Flux-Residual          L2-NORM 
          0                 1           2             5    6     1       0.6597115015E-01       5    8    1         0.3569661208E+01      0.9053316793E+01
          0                 2           2             5    7     1      -0.4586149363E-01       5    8    1        -0.2516173502E+01      0.6143346632E+01
          0                 3           2             4    7     1       0.3380847384E-01       5    8    1         0.1869704670E+01      0.4590315507E+01
          0                 4           2             4    7     1      -0.1345277269E-02       5    6    1        -0.7645515511E-01      0.1887674189E+00
          0                 5           1             4    7     1       0.1658784153E-04       5    6    1         0.9678341057E-03      0.2566949091E-02

    ------------------------------------------------
       NWT REQUIRED            5 OUTER ITERATIONS 
       AND A TOTAL OF          9 INNER ITERATIONS.
    ------------------------------------------------

 NO OUTPUT CONTROL FOR STRESS PERIOD   21   TIME STEP   26
 
 SOLVING FOR HEAD 
                                                   Max.-Head-Change                         Max.-Flux-Residual
  Residual-Control   Outer-Iter.   Inner-Iter.     Column Row Layer    Maximum-Head-Change  Column Row Layer    Maximum-Flux-Residual          L2-NORM 
          0                 1           2             5    6     1       0.6366208424E-01       5    6    1         0.3441785929E+01      0.8808327833E+01
          0                 2           2             4    7     1      -0.1677869690E+00       5    6    1        -0.9056657702E+01      0.2216021258E+02
          0                 3           2             4    7     1       0.1142552365E-01       5    6    1         0.6339383438E+00      0.1554220070E+01
          0                 4           2             4    7     1      -0.4546329747E-03       5    6    1        -0.2592610873E-01      0.6379638440E-01
          0                 5           1             4    7     1       0.5605820433E-05       5    6    1         0.3284252266E-03      0.8500854827E-03

    ------------------------------------------------
       NWT REQUIRED            5 OUTER ITERATIONS 
       AND A TOTAL OF          9 INNER ITERATIONS.
    ------------------------------------------------

 NO OUTPUT CONTROL FOR STRESS PERIOD   21   TIME STEP   27
 
 SOLVING FOR HEAD 
                                                   Max.-Head-Change                         Max.-Flux-Residual
  Residual-Control   Outer-Iter.   Inner-Iter.     Column Row Layer    Maximum-Head-Change  Column Row Layer    Maximum-Flux-Residual          L2-NORM 
          0                 1           2             5    6     1       0.6571927528E-01       5    8    1         0.3555136712E+01      0.9036857490E+01
          0                 2           2             5    7     1      -0.4586987270E-01       5    8    1        -0.2514721126E+01      0.6143516097E+01
          0                 3           2             4    7     1       0.3381217269E-01       5    8    1         0.1869603003E+01      0.4590342046E+01
          0                 4           2             4    7     1      -0.1345424461E-02       5    6    1        -0.7645086482E-01      0.1887683181E+00
          0                 5           1             4    7     1       0.1658965650E-04       5    6    1         0.9677720982E-03      0.2566973902E-02

    ------------------------------------------------
       NWT REQUIRED            5 OUTER ITERATIONS 
       AND A TOTAL OF          9 INNER ITERATIONS.
    ------------------------------------------------

 NO OUTPUT CONTROL FOR STRESS PERIOD   21   TIME STEP   28
 
 SOLVING FOR HEAD 
                                                   Max.-Head-Change                         Max.-Flux-Residual
  Residual-Control   Outer-Iter.   Inner-Iter.     Column Row Layer    Maximum-Head-Change  Column Row Layer    Maximum-Flux-Residual          L2-NORM 
          0                 1           2             5    6     1       0.6343707554E-01       5    6    1         0.3428691922E+01      0.8795111571E+01
          0                 2           2             4    7     1      -0.1678385073E+00       5    6    1        -0.9055348373E+01      0.2216072463E+02
          0                 3           2             4    7     1       0.1142903243E-01       5    6    1         0.6338450758E+00      0.1554230303E+01
          0                 4           2             4    7     1      -0.4547725961E-03       5    6    1        -0.2592213763E-01      0.6379480920E-01
          0                 5           1             4    7     1       0.5607542213E-05       5    6    1         0.3283642886E-03      0.8497550745E-03

    ------------------------------------------------
       NWT REQUIRED            5 OUTER ITERATIONS 
       AND A TOTAL OF          9 INNER ITERATIONS.
    ------------------------------------------------

 NO OUTPUT CONTROL FOR STRESS PERIOD   21   TIME STEP   29
 
 SOLVING FOR HEAD 
                                                   Max.-Head-Change                         Max.-Flux-Residual
  Residual-Control   Outer-Iter.   Inner-Iter.     Column Row Layer    Maximum-Head-Change  Column Row Layer    Maximum-Flux-Residual          L2-NORM 
          0                 1           2             5    6     1       0.6551898905E-01       5    8    1         0.3543676591E+01      0.9024802414E+01
          0                 2           2             5    7     1      -0.4587906658E-01       5    8    1        -0.2513575182E+01      0.6143951291E+01
          0                 3           2             4    7     1       0.3381558897E-01       5    8    1         0.1869522787E+01      0.4590385290E+01
          0                 4           2             4    7     1      -0.1345560408E-02       5    6    1        -0.7644740847E-01      0.1887697196E+00
          0                 5           1             4    7     1       0.1659133269E-04       5    6    1         0.9677213529E-03      0.2566843387E-02

    ------------------------------------------------
       NWT REQUIRED            5 OUTER ITERATIONS 
       AND A TOTAL OF          9 INNER ITERATIONS.
    ------------------------------------------------

 NO OUTPUT CONTROL FOR STRESS PERIOD   21   TIME STEP   30



 STREAM LISTING     PERIOD     21   STEP       30

 LAYER ROW COL. STREAM  RCH.  FLOW INTO     FLOW TO   FLOW OUT OF   OVRLND.     DIRECT     STREAM       STREAM     STREAM     STREAM   STREAMBED  STREAMBED
                SEG.NO.  NO.  STRM. RCH.    AQUIFER    STRM. RCH.    RUNOFF     PRECIP       ET          HEAD       DEPTH      WIDTH   CONDCTNC.   GRADIENT

   1    1    1     1     1    2.7750E+01  2.5751E-01   2.7493E+01  0.000E+00  0.000E+00  0.000E+00  1.09427E+03  1.218E+00  1.357E+01  6.105E-02  1.406E+00
   1    2    2     1     2    2.7493E+01  3.9833E-01   2.7095E+01  0.000E+00  0.000E+00  0.000E+00  1.08927E+03  1.213E+00  1.351E+01  9.454E-02  1.404E+00
   1    3    3     1     3    2.7095E+01  3.3924E-01   2.6755E+01  0.000E+00  0.000E+00  0.000E+00  1.08363E+03  1.208E+00  1.344E+01  8.062E-02  1.403E+00
   1    3    4     1     4    2.6755E+01  3.1201E-01   2.6443E+01  0.000E+00  0.000E+00  0.000E+00  1.07861E+03  1.203E+00  1.337E+01  7.423E-02  1.401E+00
   1    4    5     2     1    2.4443E+01  3.2655E-01   2.4117E+01  0.000E+00  0.000E+00  0.000E+00  1.07312E+03  1.187E+00  1.200E+01  7.800E-02  1.396E+00
   1    5    6     2     2    2.4117E+01  2.5069E-01   2.3866E+01  0.000E+00  0.000E+00  0.000E+00  1.06769E+03  1.178E+00  1.200E+01  6.000E-02  1.393E+00
   1    6    6     2     3    2.3866E+01  2.5024E-01   2.3616E+01  0.000E+00  0.000E+00  0.000E+00  1.06296E+03  1.171E+00  1.200E+01  6.000E-02  1.390E+00
   1    7    6     2     4    2.3616E+01  2.4980E-01   2.3366E+01  0.000E+00  0.000E+00  0.000E+00  1.05824E+03  1.163E+00  1.200E+01  6.000E-02  1.388E+00
   1    8    6     2     5    2.3366E+01  2.4935E-01   2.3117E+01  0.000E+00  0.000E+00  0.000E+00  1.05351E+03  1.156E+00  1.200E+01  6.000E-02  1.385E+00
   1    3    5     3     1    2.0000E+00  2.8252E-01   1.7175E+00  0.000E+00  0.000E+00  0.000E+00  1.07555E+03  1.909E+00  9.636E+00  7.227E-02  1.955E+00
   1    3    6     3     2    1.7175E+00  2.4905E-01   1.4684E+00  0.000E+00  0.000E+00  0.000E+00  1.07264E+03  1.727E+00  8.909E+00  6.682E-02  1.864E+00
   1    3    7     3     3    1.4684E+00  1.9718E-01   1.2712E+00  0.000E+00  0.000E+00  0.000E+00  1.06987E+03  1.555E+00  8.218E+00  5.547E-02  1.777E+00
   1    4    8     3     4    1.2712E+00  2.2567E-01   1.0456E+00  0.000E+00  0.000E+00  0.000E+00  1.06682E+03  1.364E+00  7.455E+00  6.709E-02  1.682E+00
   1    5    8     3     5    1.0456E+00  1.5790E-01   8.8768E-01  0.000E+00  0.000E+00  0.000E+00  1.06362E+03  1.164E+00  6.655E+00  4.991E-02  1.582E+00
   1    6    8     3     6    8.8768E-01  5.5980E-02   8.3170E-01  0.000E+00  0.000E+00  0.000E+00  1.06158E+03  1.036E+00  6.145E+00  1.844E-02  1.518E+00
   1    5   10     4     1    1.0000E+01  9.0919E-02   9.9091E+00  0.000E+00  0.000E+00  0.000E+00  1.07836E+03  6.368E-01  1.000E+01  2.500E-02  1.212E+00
   1    5    9     4     2    9.9091E+00  1.8158E-01   9.7275E+00  0.000E+00  0.000E+00  0.000E+00  1.07154E+03  6.315E-01  1.000E+01  5.000E-02  1.211E+00
   1    6    8     4     3    9.7275E+00  1.2689E-01   9.6006E+00  0.000E+00  0.000E+00  0.000E+00  1.06381E+03  6.256E-01  1.000E+01  3.500E-02  1.209E+00
   1    6    8     5     1    1.0432E+01  2.2686E-01   1.0205E+01  0.000E+00  0.000E+00  0.000E+00  1.05868E+03  6.790E-01  1.542E+01  6.166E-02  1.226E+00
   1    7    7     5     2    1.0205E+01  2.7894E-01   9.9265E+00  0.000E+00  0.000E+00  0.000E+00  1.05417E+03  6.732E-01  1.519E+01  7.594E-02  1.224E+00
   1    8    7     5     3    9.9265E+00  1.9221E-01   9.7343E+00  0.000E+00  0.000E+00  0.000E+00  1.04992E+03  6.676E-01  1.497E+01  5.241E-02  1.223E+00
   1    8    6     5     4    9.7343E+00  1.3577E-01   9.5985E+00  0.000E+00  0.000E+00  0.000E+00  1.04691E+03  6.637E-01  1.482E+01  3.706E-02  1.221E+00
   1    9    6     6     1    9.5985E+00  2.2097E-01   9.3776E+00  0.000E+00  0.000E+00  0.000E+00  1.04341E+03  6.828E-01  1.200E+01  6.000E-02  1.228E+00
   1   10    7     6     2    9.3776E+00  2.2039E-01   9.1572E+00  0.000E+00  0.000E+00  0.000E+00  1.03885E+03  6.732E-01  1.200E+01  6.000E-02  1.224E+00
   1   11    7     6     3    9.1572E+00  2.1981E-01   8.9374E+00  0.000E+00  0.000E+00  0.000E+00  1.03430E+03  6.636E-01  1.200E+01  6.000E-02  1.221E+00
   1   12    7     6     4    8.9374E+00  2.1923E-01   8.7181E+00  0.000E+00  0.000E+00  0.000E+00  1.02974E+03  6.539E-01  1.200E+01  6.000E-02  1.218E+00
   1   13    7     6     5    8.7181E+00 -1.1361E-01   8.8317E+00  0.000E+00  0.000E+00  0.000E+00  1.02656E+03  6.515E-01  1.200E+01  2.400E-01 -1.578E-01
   1   14    9     7     1    1.5000E+02  1.3372E+00   1.4866E+02  0.000E+00  0.000E+00  0.000E+00  1.03987E+03  2.288E+00  5.529E+01  5.593E-01  7.970E-01
   1   13    8     7     2    1.4866E+02  1.8364E+00   1.4683E+02  0.000E+00  0.000E+00  0.000E+00  1.03478E+03  2.279E+00  5.526E+01  6.148E-01  9.957E-01
   1   13    7     7     3    1.4683E+02  1.4831E+00   1.4534E+02  0.000E+00  0.000E+00  0.000E+00  1.02969E+03  2.270E+00  5.522E+01  5.584E-01  8.853E-01
   1   13    6     8     1    1.5418E+02  8.3981E-01   1.5334E+02  0.000E+00  0.000E+00  0.000E+00  1.02472E+03  2.843E+00  4.122E+01  4.201E-01  6.664E-01
   1   13    5     8     2    1.5334E+02  1.1599E-01   1.5322E+02  0.000E+00  0.000E+00  0.000E+00  1.01846E+03  2.840E+00  4.118E+01  4.196E-01  9.214E-02
   1   13    4     8     3    1.5322E+02 -2.6083E+00   1.5583E+02  0.000E+00  0.000E+00  0.000E+00  1.01222E+03  2.848E+00  4.130E+01  4.209E+00 -2.066E-01
   1   13    3     8     4    1.5583E+02 -3.7261E+00   1.5955E+02  0.000E+00  0.000E+00  0.000E+00  1.00600E+03  2.870E+00  4.162E+01  4.241E+00 -2.929E-01
   1   13    2     8     5    1.5955E+02 -2.6072E+00   1.6216E+02  0.000E+00  0.000E+00  0.000E+00  9.99767E+02  2.892E+00  4.193E+01  4.273E+00 -2.034E-01
   1   13    1     8     6    1.6216E+02 -1.9993E+00   1.6416E+02  0.000E+00  0.000E+00  0.000E+00  9.94782E+02  2.907E+00  4.215E+01  2.577E+00 -2.586E-01
   1    8    6     9     1    2.3117E+01  0.0000E+00   2.3117E+01  0.000E+00  0.000E+00  0.000E+00  1.08250E+03  3.747E+00  4.000E+00  0.000E+00  2.249E+00
   1    8    5     9     2    2.3117E+01  0.0000E+00   2.3117E+01  0.000E+00  0.000E+00  0.000E+00  1.08200E+03  3.747E+00  4.000E+00  0.000E+00  2.249E+00





UNSATURATED ZONE PACKAGE VOLUMETRIC BUDGET FOR  TIME STEP    30 STRESS PERIOD   21
  ------------------------------------------------------------------------------



     CUMULATIVE VOLUMES      L**3       RATES FOR THIS TIME STEP      L**3/T
     ------------------                 ------------------------

           IN:                                      IN:
           ---                                      ---
        INFILTRATION =  1169622936.8728          INFILTRATION =          30.3185

          OUT:                                     OUT:
          ----                                     ----
              UZF ET =   944567708.1056                UZF ET =          52.9209
        UZF RECHARGE =      627361.4960          UZF RECHARGE =       0.0000E+00

            IN - OUT =   224427867.2712              IN - OUT =         -22.6024

          STORAGE:                                 STORAGE:
          --------                                 --------
      STORAGE CHANGE =   224428389.2780        STORAGE CHANGE =         -22.6024

 PERCENT DISCREPANCY IS DIFFERENCE BETWEEN IN-OUT MINUS CHANGE IN STORAGE
 DIVIDED BY THE AVERAGE OF IN AND OUT TIMES 100

 PERCENT DISCREPANCY =          -0.00     PERCENT DISCREPANCY =           0.00






1
  VOLUMETRIC BUDGET FOR AGRICULTURAL FIELDS AT  END OF TIME STEP   30, STRESS PERIOD  21
  ------------------------------------------------------------------------------

     CUMULATIVE VOLUMES      L**3       RATES FOR THIS TIME STEP      L**3/T
     ------------------                 ------------------------

           IN:                                      IN:
           ---                                      ---
               AG WELLS  =   361161440.0000                 AG WELLS  =           2.7938
      DIVERSION SEGMENTS =   576685120.0000        DIVERSION SEGMENTS =          23.1167
           GW IRRIGATION =           0.0000             GW IRRIGATION =           0.0000
           SW IRRIGATION =           0.0000             SW IRRIGATION =           0.0000
        SYSTEM LOSSES GW =           0.0000          SYSTEM LOSSES GW =           0.0000
        SYSTEM LOSSES SW =           0.0000          SYSTEM LOSSES SW =           0.0000

                TOTAL IN =   937846528.0000                  TOTAL IN =          25.9105

          OUT:                                     OUT:
          ----                                     ----
               AG WELLS  =           0.0000                 AG WELLS  =           0.0000
      DIVERSION SEGMENTS =           0.0000        DIVERSION SEGMENTS =           0.0000
           GW IRRIGATION =   361161440.0000             GW IRRIGATION =           2.7938
           SW IRRIGATION =   576697024.0000             SW IRRIGATION =          23.1172
        SYSTEM LOSSES GW =           0.0000          SYSTEM LOSSES GW =           0.0000
        SYSTEM LOSSES SW =           0.0000          SYSTEM LOSSES SW =           0.0000

               TOTAL OUT =   937858432.0000                 TOTAL OUT =          25.9110

                IN - OUT =      -11904.0000                  IN - OUT =      -4.6158E-04

     PERCENT DISCREPANCY =          -0.00         PERCENT DISCREPANCY =          -0.00



1
  VOLUMETRIC BUDGET FOR ENTIRE MODEL AT END OF TIME STEP   30, STRESS PERIOD  21
  ------------------------------------------------------------------------------

     CUMULATIVE VOLUMES      L**3       RATES FOR THIS TIME STEP      L**3/T
     ------------------                 ------------------------

           IN:                                      IN:
           ---                                      ---
             STORAGE     =   504165504.0000               STORAGE     =          19.2853
       CONSTANT HEAD     =           0.0000         CONSTANT HEAD     =           0.0000
     HEAD DEP BOUNDS     =    15055742.0000       HEAD DEP BOUNDS     =           0.2859
      STREAM LEAKAGE     =   632547904.0000        STREAM LEAKAGE     =          11.5281
        UZF RECHARGE     =      627361.5000          UZF RECHARGE     =           0.0000
               GW ET     =           0.0000                 GW ET     =           0.0000
     SURFACE LEAKAGE     =           0.0000       SURFACE LEAKAGE     =           0.0000
           AG WELLS      =           0.0000             AG WELLS      =           0.0000

                TOTAL IN =  1152396416.0000                  TOTAL IN =          31.0992

          OUT:                                     OUT:
          ----                                     ----
             STORAGE     =   202849792.0000               STORAGE     =          16.9636
       CONSTANT HEAD     =           0.0000         CONSTANT HEAD     =           0.0000
     HEAD DEP BOUNDS     =    15333305.0000       HEAD DEP BOUNDS     =           0.2872
      STREAM LEAKAGE     =   571030464.0000        STREAM LEAKAGE     =          11.0545
        UZF RECHARGE     =           0.0000          UZF RECHARGE     =           0.0000
               GW ET     =     2023766.7500                 GW ET     =           0.0000
     SURFACE LEAKAGE     =           0.0000       SURFACE LEAKAGE     =           0.0000
           AG WELLS      =   361161440.0000             AG WELLS      =           2.7938

               TOTAL OUT =  1152398720.0000                 TOTAL OUT =          31.0991

                IN - OUT =       -2304.0000                  IN - OUT =       1.2589E-04

     PERCENT DISCREPANCY =          -0.00         PERCENT DISCREPANCY =           0.00






         TIME SUMMARY AT END OF TIME STEP   30 IN STRESS PERIOD   21
                    SECONDS     MINUTES      HOURS       DAYS        YEARS
                    -----------------------------------------------------------
   TIME STEP LENGTH  87667.      1461.1      24.352      1.0147     2.77799E-03
 STRESS PERIOD TIME 2.63000E+06  43833.      730.56      30.440     8.33397E-02
         TOTAL TIME 5.26866E+07 8.78110E+05  14635.      609.80      1.6695    
1
1
                            STRESS PERIOD NO.   22, LENGTH =   2630000.    
                            -----------------------------------------------

                              NUMBER OF TIME STEPS =    30

                               MULTIPLIER FOR DELT =     1.000

                            INITIAL TIME STEP SIZE =   87666.66    

 REUSING NON-PARAMETER GHB CELLS FROM LAST STRESS PERIOD

      2 GHB CELLS

 REUSING STREAM SEGMENT DATA FROM LAST STRESS PERIOD



            AREAL INFILTRATION RATE
 READING ON UNIT   19 WITH FORMAT: (10F4.0)            

            1           2           3           4           5           6           7           8           9          10
 ........................................................................................................................
   1   1.2000E-09   0.000       0.000       0.000       0.000       0.000       0.000       0.000       0.000       0.000    
   2   2.1000E-09  2.0000E-09  8.0000E-10  8.5000E-09   0.000       0.000       0.000       0.000       0.000       0.000    
   3   5.0000E-10  1.1000E-09  8.8000E-09  5.5000E-09   0.000       0.000       0.000       0.000       0.000       0.000    
   4   8.5000E-09  1.1000E-09  1.1000E-09  1.1000E-09  2.0000E-09   0.000       0.000       0.000       0.000       0.000    
   5   8.5000E-09  1.1000E-09  1.1000E-09  1.1000E-09  1.1000E-09   0.000       0.000       0.000       0.000       0.000    
   6   8.5000E-09  5.2000E-09  2.1000E-09  1.1000E-09  1.5000E-09   0.000       0.000       0.000       0.000       0.000    
   7   8.5000E-09  5.2000E-09  2.1000E-09  1.2000E-09  2.0000E-09   0.000       0.000       0.000       0.000       0.000    
   8   5.0000E-10  5.2000E-09  2.1000E-09  1.2000E-09  5.0000E-09   0.000       0.000       0.000       0.000       0.000    
   9   5.0000E-10  5.2000E-09  2.1000E-09  1.2000E-09  5.0000E-09   0.000       0.000       0.000       0.000       0.000    
  10   5.0000E-10  5.2000E-09  2.1000E-09  1.2000E-09  5.8000E-09   0.000       0.000       0.000       0.000       0.000    
  11   1.0000E-10  1.1000E-09  1.1000E-09  1.2000E-09  5.0000E-09   0.000       0.000       0.000       0.000       0.000    
  12   1.1000E-09  1.1000E-09  1.1000E-09  1.1000E-09  2.0000E-09   0.000       0.000       0.000       0.000       0.000    
  13   1.1000E-09  2.2000E-09  2.2000E-09  2.1000E-09  1.0000E-09   0.000       0.000       0.000       0.000       0.000    
  14   2.0000E-10  5.5000E-09  5.5000E-09  5.2000E-09  1.0000E-09   0.000       0.000       0.000       0.000       0.000    
  15    0.000      8.8000E-09  8.8000E-09   0.000       0.000       0.000       0.000       0.000       0.000       0.000    

                  ET RATE =  7.500000E-08

 USING ET EXTINCTION DEPTH FROM PREVIOUS STRESS PERIOD. CURRENT PERIOD IS:      22

 USING EXTINCTION WATER CONTENT FROM PREVIOUS STRESS PERIOD. CURRENT PERIOD IS:      22

 USING AIR ENTRY PRESSURE FROM PREVIOUS STRESS PERIOD. CURRENT PERIOD IS:      22

 USING ROOT PRESSURE HEAD FROM PREVIOUS STRESS PERIOD. CURRENT PERIOD IS:      22

 USING ROOT ACTIVITY FROM PREVIOUS STRESS PERIOD. CURRENT PERIOD IS:      22

 PROCESSING AG STRESS PERIOD DATA

 READING AG STRESS PERIOD DATA

 READING IRRIGATION SEGMENT

 READING IRRIGATION WELL

 READING SUPPLEMENTAL WELL

 END PROCESSING AG STRESS PERIOD DATA OPTIONS
 
 SOLVING FOR HEAD 
                                                   Max.-Head-Change                         Max.-Flux-Residual
  Residual-Control   Outer-Iter.   Inner-Iter.     Column Row Layer    Maximum-Head-Change  Column Row Layer    Maximum-Flux-Residual          L2-NORM 
          0                 1           2             5    6     1       0.6325644860E-01       5    6    1         0.3418289206E+01      0.8771347373E+01
          0                 2           2             5    6     1      -0.6746627887E-02       5    6    1        -0.3744588986E+00      0.9508097776E+00
          0                 3           2             5    6     1       0.1036839541E-02       5    6    1         0.5884636663E-01      0.1435648889E+00
          0                 4           1             5    6     1      -0.4125673129E-04       5    6    1        -0.2406819583E-02      0.5874873868E-02

    ------------------------------------------------
       NWT REQUIRED            4 OUTER ITERATIONS 
       AND A TOTAL OF          7 INNER ITERATIONS.
    ------------------------------------------------

 NO OUTPUT CONTROL FOR STRESS PERIOD   22   TIME STEP    1
 
 SOLVING FOR HEAD 
                                                   Max.-Head-Change                         Max.-Flux-Residual
  Residual-Control   Outer-Iter.   Inner-Iter.     Column Row Layer    Maximum-Head-Change  Column Row Layer    Maximum-Flux-Residual          L2-NORM 
          0                 1           2             5    6     1       0.6088176116E-01       5    6    1         0.3287554920E+01      0.8514177912E+01
          0                 2           2             4    7     1      -0.3953324690E-01       5    6    1        -0.2153751744E+01      0.5277924049E+01
          0                 3           2             4    7     1       0.1323041099E-01       5    6    1         0.7321731292E+00      0.1797310345E+01
          0                 4           2             4    7     1      -0.5264513979E-03       5    6    1        -0.2994277898E-01      0.7393500718E-01
          0                 5           1             4    7     1       0.6491372312E-05       5    6    1         0.3792507587E-03      0.1010600108E-02

    ------------------------------------------------
       NWT REQUIRED            5 OUTER ITERATIONS 
       AND A TOTAL OF          9 INNER ITERATIONS.
    ------------------------------------------------

 NO OUTPUT CONTROL FOR STRESS PERIOD   22   TIME STEP    2
 
 SOLVING FOR HEAD 
                                                   Max.-Head-Change                         Max.-Flux-Residual
  Residual-Control   Outer-Iter.   Inner-Iter.     Column Row Layer    Maximum-Head-Change  Column Row Layer    Maximum-Flux-Residual          L2-NORM 
          0                 1           2             5    6     1       0.5927768018E-01       5    6    1         0.3199224191E+01      0.8342244783E+01
          0                 2           2             5    6     1      -0.5873046687E-02       5    6    1        -0.3258015095E+00      0.8474678764E+00
          0                 3           2             5    6     1       0.3693445466E-03       5    6    1         0.2107736048E-01      0.5540820171E-01
          0                 4           1             5    7     1      -0.2281371868E-04       5    6    1        -0.1330666573E-02      0.3821462032E-02

    ------------------------------------------------
       NWT REQUIRED            4 OUTER ITERATIONS 
       AND A TOTAL OF          7 INNER ITERATIONS.
    ------------------------------------------------

 NO OUTPUT CONTROL FOR STRESS PERIOD   22   TIME STEP    3
 
 SOLVING FOR HEAD 
                                                   Max.-Head-Change                         Max.-Flux-Residual
  Residual-Control   Outer-Iter.   Inner-Iter.     Column Row Layer    Maximum-Head-Change  Column Row Layer    Maximum-Flux-Residual          L2-NORM 
          0                 1           2             5    7     1       0.5789756000E-01       5    6    1         0.3081003842E+01      0.8109127031E+01
          0                 2           2             4    7     1      -0.3948639516E-01       5    6    1        -0.2133097115E+01      0.5243408078E+01
          0                 3           2             4    7     1       0.1322722300E-01       5    6    1         0.7307273012E+00      0.1795014511E+01
          0                 4           2             4    7     1      -0.5263245593E-03       5    6    1        -0.2988301477E-01      0.7384168835E-01
          0                 5           1             4    7     1       0.6489808361E-05       5    7    1         0.3786077496E-03      0.1009630484E-02

    ------------------------------------------------
       NWT REQUIRED            5 OUTER ITERATIONS 
       AND A TOTAL OF          9 INNER ITERATIONS.
    ------------------------------------------------

 NO OUTPUT CONTROL FOR STRESS PERIOD   22   TIME STEP    4
 
 SOLVING FOR HEAD 
                                                   Max.-Head-Change                         Max.-Flux-Residual
  Residual-Control   Outer-Iter.   Inner-Iter.     Column Row Layer    Maximum-Head-Change  Column Row Layer    Maximum-Flux-Residual          L2-NORM 
          0                 1           2             5    7     1       0.5706858801E-01       5    7    1         0.3027316038E+01      0.7956615770E+01
          0                 2           2             5    7     1      -0.5680218558E-02       5    7    1        -0.3097266482E+00      0.8115033350E+00
          0                 3           2             5    7     1       0.4154317120E-03       5    7    1         0.2327677477E-01      0.6036179330E-01
          0                 4           1             4    7     1      -0.5211197964E-04       5    7    1        -0.2982912734E-02      0.7446123417E-02

    ------------------------------------------------
       NWT REQUIRED            4 OUTER ITERATIONS 
       AND A TOTAL OF          7 INNER ITERATIONS.
    ------------------------------------------------

 NO OUTPUT CONTROL FOR STRESS PERIOD   22   TIME STEP    5
 
 SOLVING FOR HEAD 
                                                   Max.-Head-Change                         Max.-Flux-Residual
  Residual-Control   Outer-Iter.   Inner-Iter.     Column Row Layer    Maximum-Head-Change  Column Row Layer    Maximum-Flux-Residual          L2-NORM 
          0                 1           2             5    7     1       0.5591075649E-01       5    7    1         0.2966049996E+01      0.7742798797E+01
          0                 2           2             4    7     1      -0.3942729524E-01       5    7    1        -0.2121604222E+01      0.5211702818E+01
          0                 3           2             4    7     1       0.1322319781E-01       5    7    1         0.7299225739E+00      0.1792892191E+01
          0                 4           2             4    7     1      -0.5261644069E-03       5    7    1        -0.2985215819E-01      0.7375565211E-01
          0                 5           1             4    7     1       0.6487833875E-05       5    7    1         0.3781982659E-03      0.1009553462E-02

    ------------------------------------------------
       NWT REQUIRED            5 OUTER ITERATIONS 
       AND A TOTAL OF          9 INNER ITERATIONS.
    ------------------------------------------------

 NO OUTPUT CONTROL FOR STRESS PERIOD   22   TIME STEP    6
 
 SOLVING FOR HEAD 
                                                   Max.-Head-Change                         Max.-Flux-Residual
  Residual-Control   Outer-Iter.   Inner-Iter.     Column Row Layer    Maximum-Head-Change  Column Row Layer    Maximum-Flux-Residual          L2-NORM 
          0                 1           2             4    7     1       0.5547112598E-01       5    7    1         0.2924055492E+01      0.7607042180E+01
          0                 2           2             4    7     1      -0.5532840529E-02       5    7    1        -0.2997582861E+00      0.7774313887E+00
          0                 3           2             4    7     1       0.4013487054E-03       5    7    1         0.2233935187E-01      0.5744534049E-01
          0                 4           1             4    7     1      -0.5875221278E-04       5    7    1        -0.3339804901E-02      0.8306749278E-02

    ------------------------------------------------
       NWT REQUIRED            4 OUTER ITERATIONS 
       AND A TOTAL OF          7 INNER ITERATIONS.
    ------------------------------------------------

 NO OUTPUT CONTROL FOR STRESS PERIOD   22   TIME STEP    7
 
 SOLVING FOR HEAD 
                                                   Max.-Head-Change                         Max.-Flux-Residual
  Residual-Control   Outer-Iter.   Inner-Iter.     Column Row Layer    Maximum-Head-Change  Column Row Layer    Maximum-Flux-Residual          L2-NORM 
          0                 1           2             4    7     1       0.5504432118E-01       4    7    1         0.2882226122E+01      0.7410104065E+01
          0                 2           2             4    7     1      -0.3935808874E-01       4    7    1        -0.2113223162E+01      0.5182497589E+01
          0                 3           2             4    7     1       0.1321848174E-01       4    7    1         0.7293357999E+00      0.1790926855E+01
          0                 4           2             4    7     1      -0.5259767607E-03       4    7    1        -0.2982993834E-01      0.7367555883E-01
          0                 5           1             4    7     1       0.6485519761E-05       4    7    1         0.3780371585E-03      0.1007456484E-02

    ------------------------------------------------
       NWT REQUIRED            5 OUTER ITERATIONS 
       AND A TOTAL OF          9 INNER ITERATIONS.
    ------------------------------------------------

 NO OUTPUT CONTROL FOR STRESS PERIOD   22   TIME STEP    8
 
 SOLVING FOR HEAD 
                                                   Max.-Head-Change                         Max.-Flux-Residual
  Residual-Control   Outer-Iter.   Inner-Iter.     Column Row Layer    Maximum-Head-Change  Column Row Layer    Maximum-Flux-Residual          L2-NORM 
          0                 1           2             4    7     1       0.5471491592E-01       4    7    1         0.2865926996E+01      0.7288840403E+01
          0                 2           2             4    7     1      -0.5452829386E-02       4    7    1        -0.2936000848E+00      0.7448818893E+00
          0                 3           2             4    7     1       0.4288064363E-03       4    7    1         0.2372373559E-01      0.5936538555E-01
          0                 4           1             4    7     1      -0.3816899258E-04       4    7    1        -0.2167219571E-02      0.5368840323E-02

    ------------------------------------------------
       NWT REQUIRED            4 OUTER ITERATIONS 
       AND A TOTAL OF          7 INNER ITERATIONS.
    ------------------------------------------------

 NO OUTPUT CONTROL FOR STRESS PERIOD   22   TIME STEP    9
 
 SOLVING FOR HEAD 
                                                   Max.-Head-Change                         Max.-Flux-Residual
  Residual-Control   Outer-Iter.   Inner-Iter.     Column Row Layer    Maximum-Head-Change  Column Row Layer    Maximum-Flux-Residual          L2-NORM 
          0                 1           2             4    7     1       0.5424744360E-01       4    7    1         0.2842914113E+01      0.7106442600E+01
          0                 2           2             4    7     1      -0.3927827509E-01       4    7    1        -0.2109169565E+01      0.5155197480E+01
          0                 3           2             4    7     1       0.1321526232E-01       4    7    1         0.7291745695E+00      0.1789381580E+01
          0                 4           2             4    7     1      -0.5258486666E-03       4    7    1        -0.2982334461E-01      0.7361319116E-01
          0                 5           1             4    7     1       0.6483940240E-05       4    7    1         0.3779536014E-03      0.1007237526E-02

    ------------------------------------------------
       NWT REQUIRED            5 OUTER ITERATIONS 
       AND A TOTAL OF          9 INNER ITERATIONS.
    ------------------------------------------------

 NO OUTPUT CONTROL FOR STRESS PERIOD   22   TIME STEP   10
 
 SOLVING FOR HEAD 
                                                   Max.-Head-Change                         Max.-Flux-Residual
  Residual-Control   Outer-Iter.   Inner-Iter.     Column Row Layer    Maximum-Head-Change  Column Row Layer    Maximum-Flux-Residual          L2-NORM 
          0                 1           2             4    7     1       0.5388207259E-01       4    7    1         0.2824528192E+01      0.6997785822E+01
          0                 2           2             4    7     1      -0.5363506780E-02       4    7    1        -0.2890142918E+00      0.7148035180E+00
          0                 3           2             4    7     1       0.4213713040E-03       4    7    1         0.2332810739E-01      0.5710873223E-01
          0                 4           1             4    7     1      -0.3477889714E-04       4    7    1        -0.1975568115E-02      0.4848240967E-02

    ------------------------------------------------
       NWT REQUIRED            4 OUTER ITERATIONS 
       AND A TOTAL OF          7 INNER ITERATIONS.
    ------------------------------------------------

 NO OUTPUT CONTROL FOR STRESS PERIOD   22   TIME STEP   11
 
 SOLVING FOR HEAD 
                                                   Max.-Head-Change                         Max.-Flux-Residual
  Residual-Control   Outer-Iter.   Inner-Iter.     Column Row Layer    Maximum-Head-Change  Column Row Layer    Maximum-Flux-Residual          L2-NORM 
          0                 1           2             4    7     1       0.5338245592E-01       4    7    1         0.2799640981E+01      0.6828312150E+01
          0                 2           2             4    7     1      -0.3911541739E-01       4    7    1        -0.2100618738E+01      0.5119809023E+01
          0                 3           2             4    7     1       0.1328072355E-01       4    7    1         0.7327998158E+00      0.1797333515E+01
          0                 4           2             4    7     1      -0.5284534490E-03       4    7    1        -0.2997161857E-01      0.7394080582E-01
          0                 5           1             4    7     1       0.6516058478E-05       4    7    1         0.3798326829E-03      0.1012040582E-02

    ------------------------------------------------
       NWT REQUIRED            5 OUTER ITERATIONS 
       AND A TOTAL OF          9 INNER ITERATIONS.
    ------------------------------------------------

 NO OUTPUT CONTROL FOR STRESS PERIOD   22   TIME STEP   12
 
 SOLVING FOR HEAD 
                                                   Max.-Head-Change                         Max.-Flux-Residual
  Residual-Control   Outer-Iter.   Inner-Iter.     Column Row Layer    Maximum-Head-Change  Column Row Layer    Maximum-Flux-Residual          L2-NORM 
          0                 1           2             4    7     1       0.5298773179E-01       4    7    1         0.2779542010E+01      0.6730248803E+01
          0                 2           2             4    7     1      -0.5282413706E-02       4    7    1        -0.2848324902E+00      0.6888132138E+00
          0                 3           2             4    7     1       0.4175461805E-03       4    7    1         0.2312900919E-01      0.5552427267E-01
          0                 4           1             4    7     1      -0.3672668368E-04       4    7    1        -0.2086513913E-02      0.5080516529E-02

    ------------------------------------------------
       NWT REQUIRED            4 OUTER ITERATIONS 
       AND A TOTAL OF          7 INNER ITERATIONS.
    ------------------------------------------------

 NO OUTPUT CONTROL FOR STRESS PERIOD   22   TIME STEP   13
 
 SOLVING FOR HEAD 
                                                   Max.-Head-Change                         Max.-Flux-Residual
  Residual-Control   Outer-Iter.   Inner-Iter.     Column Row Layer    Maximum-Head-Change  Column Row Layer    Maximum-Flux-Residual          L2-NORM 
          0                 1           2             4    7     1       0.5246313940E-01       4    7    1         0.2753178050E+01      0.6572244085E+01
          0                 2           2             4    7     1      -0.3894723101E-01       4    7    1        -0.2091746836E+01      0.5086166313E+01
          0                 3           2             4    7     1       0.1334585908E-01       4    7    1         0.7364047367E+00      0.1805404241E+01
          0                 4           2             4    7     1      -0.5310452701E-03       4    7    1        -0.3011906114E-01      0.7427338754E-01
          0                 5           1             4    7     1       0.6548016870E-05       4    7    1         0.3817012384E-03      0.1016753914E-02

    ------------------------------------------------
       NWT REQUIRED            5 OUTER ITERATIONS 
       AND A TOTAL OF          9 INNER ITERATIONS.
    ------------------------------------------------

 NO OUTPUT CONTROL FOR STRESS PERIOD   22   TIME STEP   14
 
 SOLVING FOR HEAD 
                                                   Max.-Head-Change                         Max.-Flux-Residual
  Residual-Control   Outer-Iter.   Inner-Iter.     Column Row Layer    Maximum-Head-Change  Column Row Layer    Maximum-Flux-Residual          L2-NORM 
          0                 1           2             4    7     1       0.5204563532E-01       4    7    1         0.2731731761E+01      0.6483468811E+01
          0                 2           2             4    7     1      -0.5237618721E-02       4    7    1        -0.2825657310E+00      0.6699468631E+00
          0                 3           2             4    7     1       0.4276778965E-03       4    7    1         0.2369760879E-01      0.5592010485E-01
          0                 4           1             4    7     1      -0.5597218575E-04       4    7    1        -0.3178300055E-02      0.7731849419E-02

    ------------------------------------------------
       NWT REQUIRED            4 OUTER ITERATIONS 
       AND A TOTAL OF          7 INNER ITERATIONS.
    ------------------------------------------------

 NO OUTPUT CONTROL FOR STRESS PERIOD   22   TIME STEP   15
 
 SOLVING FOR HEAD 
                                                   Max.-Head-Change                         Max.-Flux-Residual
  Residual-Control   Outer-Iter.   Inner-Iter.     Column Row Layer    Maximum-Head-Change  Column Row Layer    Maximum-Flux-Residual          L2-NORM 
          0                 1           2             4    7     1       0.5150240074E-01       4    7    1         0.2704241671E+01      0.6335775997E+01
          0                 2           2             4    7     1      -0.3879056039E-01       4    7    1        -0.2083462118E+01      0.5056166598E+01
          0                 3           2             4    7     1       0.1339664793E-01       4    7    1         0.7392160598E+00      0.1811672172E+01
          0                 4           2             4    7     1      -0.5330662199E-03       4    7    1        -0.3023404528E-01      0.7453189117E-01
          0                 5           1             4    7     1       0.6572935915E-05       4    7    1         0.3831584422E-03      0.1020376340E-02

    ------------------------------------------------
       NWT REQUIRED            5 OUTER ITERATIONS 
       AND A TOTAL OF          9 INNER ITERATIONS.
    ------------------------------------------------

 NO OUTPUT CONTROL FOR STRESS PERIOD   22   TIME STEP   16
 
 SOLVING FOR HEAD 
                                                   Max.-Head-Change                         Max.-Flux-Residual
  Residual-Control   Outer-Iter.   Inner-Iter.     Column Row Layer    Maximum-Head-Change  Column Row Layer    Maximum-Flux-Residual          L2-NORM 
          0                 1           2             4    7     1       0.5106819613E-01       4    7    1         0.2681785385E+01      0.6255251642E+01
          0                 2           2             4    7     1      -0.5215118716E-02       4    7    1        -0.2814664558E+00      0.6561401537E+00
          0                 3           2             4    7     1       0.4146616380E-03       4    7    1         0.2298707271E-01      0.5350246841E-01
          0                 4           1             4    7     1      -0.9681557280E-04       4    7    1        -0.5494799225E-02      0.1346016286E-01

    ------------------------------------------------
       NWT REQUIRED            4 OUTER ITERATIONS 
       AND A TOTAL OF          7 INNER ITERATIONS.
    ------------------------------------------------

 NO OUTPUT CONTROL FOR STRESS PERIOD   22   TIME STEP   17
 
 SOLVING FOR HEAD 
                                                   Max.-Head-Change                         Max.-Flux-Residual
  Residual-Control   Outer-Iter.   Inner-Iter.     Column Row Layer    Maximum-Head-Change  Column Row Layer    Maximum-Flux-Residual          L2-NORM 
          0                 1           2             4    7     1       0.5051217983E-01       4    7    1         0.2653493099E+01      0.6116963733E+01
          0                 2           2             4    7     1      -0.3476477880E-01       4    7    1        -0.1867492218E+01      0.4517656930E+01
          0                 3           2             4    7     1       0.1694505931E-01       4    7    1         0.9349935016E+00      0.2292420071E+01
          0                 4           2             4    7     1      -0.6742614688E-03       4    7    1        -0.3824115000E-01      0.9430983577E-01
          0                 5           1             4    7     1       0.8313933446E-05       4    7    1         0.4846165357E-03      0.1290731443E-02

    ------------------------------------------------
       NWT REQUIRED            5 OUTER ITERATIONS 
       AND A TOTAL OF          9 INNER ITERATIONS.
    ------------------------------------------------

 NO OUTPUT CONTROL FOR STRESS PERIOD   22   TIME STEP   18
 
 SOLVING FOR HEAD 
                                                   Max.-Head-Change                         Max.-Flux-Residual
  Residual-Control   Outer-Iter.   Inner-Iter.     Column Row Layer    Maximum-Head-Change  Column Row Layer    Maximum-Flux-Residual          L2-NORM 
          0                 1           2             4    7     1       0.5002458385E-01       4    7    1         0.2628324155E+01      0.6023899569E+01
          0                 2           2             4    7     1      -0.1018142147E-01       4    7    1        -0.5481140635E+00      0.1282323068E+01
          0                 3           2             4    7     1       0.5634266123E-02       4    7    1         0.3109661417E+00      0.7586235047E+00
          0                 4           2             4    7     1      -0.2488304682E-03       4    7    1        -0.1411571717E-01      0.3436332517E-01
          0                 5           1             4   13     1      -0.3065525709E-04       4   13    1        -0.1906760359E-02      0.4753389400E-02

    ------------------------------------------------
       NWT REQUIRED            5 OUTER ITERATIONS 
       AND A TOTAL OF          9 INNER ITERATIONS.
    ------------------------------------------------

 NO OUTPUT CONTROL FOR STRESS PERIOD   22   TIME STEP   19
 
 SOLVING FOR HEAD 
                                                   Max.-Head-Change                         Max.-Flux-Residual
  Residual-Control   Outer-Iter.   Inner-Iter.     Column Row Layer    Maximum-Head-Change  Column Row Layer    Maximum-Flux-Residual          L2-NORM 
          0                 1           2             4    7     1       0.4945627257E-01       4    7    1         0.2599261783E+01      0.5895081716E+01
          0                 2           2             4    7     1      -0.3493240721E-01       4    7    1        -0.1876580433E+01      0.4532626399E+01
          0                 3           2             4    7     1       0.1669343322E-01       4    7    1         0.9211183731E+00      0.2257774863E+01
          0                 4           2             4    7     1      -0.6642489875E-03       4    7    1        -0.3767361633E-01      0.9288211498E-01
          0                 5           1             4    7     1       0.8190475286E-05       4    7    1         0.4774215918E-03      0.1270941935E-02

    ------------------------------------------------
       NWT REQUIRED            5 OUTER ITERATIONS 
       AND A TOTAL OF          9 INNER ITERATIONS.
    ------------------------------------------------

 NO OUTPUT CONTROL FOR STRESS PERIOD   22   TIME STEP   20
 
 SOLVING FOR HEAD 
                                                   Max.-Head-Change                         Max.-Flux-Residual
  Residual-Control   Outer-Iter.   Inner-Iter.     Column Row Layer    Maximum-Head-Change  Column Row Layer    Maximum-Flux-Residual          L2-NORM 
          0                 1           2             4    7     1       0.4896181493E-01       4    7    1         0.2573600746E+01      0.5811113120E+01
          0                 2           2             4    7     1      -0.7645059904E-02       4    7    1        -0.4120618579E+00      0.9462945020E+00
          0                 3           2             4    7     1       0.3111270239E-02       4    7    1         0.1717749279E+00      0.4160485985E+00
          0                 4           1             4    7     1      -0.1015428401E-03       4    7    1        -0.5763400806E-02      0.1483559081E-01
          0                 5           1             4   13     1      -0.2368718018E-04       4   13    1        -0.1394699159E-02      0.3035158232E-02

    ------------------------------------------------
       NWT REQUIRED            5 OUTER ITERATIONS 
       AND A TOTAL OF          8 INNER ITERATIONS.
    ------------------------------------------------

 NO OUTPUT CONTROL FOR STRESS PERIOD   22   TIME STEP   21
 
 SOLVING FOR HEAD 
                                                   Max.-Head-Change                         Max.-Flux-Residual
  Residual-Control   Outer-Iter.   Inner-Iter.     Column Row Layer    Maximum-Head-Change  Column Row Layer    Maximum-Flux-Residual          L2-NORM 
          0                 1           2             4    7     1       0.4838602986E-01       4    7    1         0.2544038026E+01      0.5689837050E+01
          0                 2           2             4    7     1      -0.3405581439E-01       4    7    1        -0.1829600126E+01      0.4411449945E+01
          0                 3           2             4    7     1       0.1738516221E-01       4    7    1         0.9592877155E+00      0.2351272691E+01
          0                 4           2             4    7     1      -0.6917736762E-03       4    7    1        -0.3923466196E-01      0.9673293393E-01
          0                 5           1             4    7     1       0.8529866685E-05       4    7    1         0.4971986350E-03      0.1324649567E-02

    ------------------------------------------------
       NWT REQUIRED            5 OUTER ITERATIONS 
       AND A TOTAL OF          9 INNER ITERATIONS.
    ------------------------------------------------

 NO OUTPUT CONTROL FOR STRESS PERIOD   22   TIME STEP   22
 
 SOLVING FOR HEAD 
                                                   Max.-Head-Change                         Max.-Flux-Residual
  Residual-Control   Outer-Iter.   Inner-Iter.     Column Row Layer    Maximum-Head-Change  Column Row Layer    Maximum-Flux-Residual          L2-NORM 
          0                 1           2             4    7     1       0.4787794867E-01       4    7    1         0.2517601409E+01      0.5608931813E+01
          0                 2           2             4    7     1      -0.9952022263E-02       4    7    1        -0.5359374823E+00      0.1239264057E+01
          0                 3           2             4    7     1       0.5581889654E-02       4    7    1         0.3080866631E+00      0.7507666179E+00
          0                 4           2             4    7     1      -0.2226595623E-03       4    7    1        -0.1263200719E-01      0.3069053334E-01
          0                 5           1             4   13     1      -0.2964121701E-04       4   13    1        -0.1843710752E-02      0.3480186724E-02

    ------------------------------------------------
       NWT REQUIRED            5 OUTER ITERATIONS 
       AND A TOTAL OF          9 INNER ITERATIONS.
    ------------------------------------------------

 NO OUTPUT CONTROL FOR STRESS PERIOD   22   TIME STEP   23
 
 SOLVING FOR HEAD 
                                                   Max.-Head-Change                         Max.-Flux-Residual
  Residual-Control   Outer-Iter.   Inner-Iter.     Column Row Layer    Maximum-Head-Change  Column Row Layer    Maximum-Flux-Residual          L2-NORM 
          0                 1           2             4    7     1       0.4729803040E-01       4    7    1         0.2487723005E+01      0.5495281726E+01
          0                 2           2             4    7     1      -0.3237098298E-01       4    7    1        -0.1739224461E+01      0.4184782502E+01
          0                 3           2             4    7     1       0.1880643048E-01       4    7    1         0.1037705788E+01      0.2543875457E+01
          0                 4           2             4    7     1      -0.7483275783E-03       4    7    1        -0.4244185096E-01      0.1046672971E+00
          0                 5           1             4    7     1       0.9227199924E-05       4    7    1         0.5378344717E-03      0.1434559239E-02

    ------------------------------------------------
       NWT REQUIRED            5 OUTER ITERATIONS 
       AND A TOTAL OF          9 INNER ITERATIONS.
    ------------------------------------------------

 NO OUTPUT CONTROL FOR STRESS PERIOD   22   TIME STEP   24
 
 SOLVING FOR HEAD 
                                                   Max.-Head-Change                         Max.-Flux-Residual
  Residual-Control   Outer-Iter.   Inner-Iter.     Column Row Layer    Maximum-Head-Change  Column Row Layer    Maximum-Flux-Residual          L2-NORM 
          0                 1           2             4    7     1       0.4677072310E-01       4    7    1         0.2460271010E+01      0.5413051678E+01
          0                 2           2             4    7     1      -0.1110622902E-01       4    7    1        -0.5979328009E+00      0.1384860548E+01
          0                 3           2             4    7     1       0.6876828365E-02       4    7    1         0.3795340300E+00      0.9261264199E+00
          0                 4           2             4    7     1      -0.2792315537E-03       4    7    1        -0.1584031701E-01      0.3856460928E-01
          0                 5           1             4   13     1      -0.3185513316E-04       4   13    1        -0.1981185334E-02      0.3513362910E-02

    ------------------------------------------------
       NWT REQUIRED            5 OUTER ITERATIONS 
       AND A TOTAL OF          9 INNER ITERATIONS.
    ------------------------------------------------

 NO OUTPUT CONTROL FOR STRESS PERIOD   22   TIME STEP   25
 
 SOLVING FOR HEAD 
                                                   Max.-Head-Change                         Max.-Flux-Residual
  Residual-Control   Outer-Iter.   Inner-Iter.     Column Row Layer    Maximum-Head-Change  Column Row Layer    Maximum-Flux-Residual          L2-NORM 
          0                 1           2             4    7     1       0.4618886967E-01       4    7    1         0.2430200076E+01      0.5306442538E+01
          0                 2           2             4    7     1      -0.3090285239E-01       4    7    1        -0.1660468910E+01      0.3987372340E+01
          0                 3           2             4    7     1       0.2002963996E-01       4    7    1         0.1105196250E+01      0.2709676937E+01
          0                 4           2             4    7     1      -0.7970005136E-03       4    7    1        -0.4520211169E-01      0.1114935813E+00
          0                 5           1             4    7     1       0.9827357828E-05       4    7    1         0.5728072597E-03      0.1526934674E-02

    ------------------------------------------------
       NWT REQUIRED            5 OUTER ITERATIONS 
       AND A TOTAL OF          9 INNER ITERATIONS.
    ------------------------------------------------

 NO OUTPUT CONTROL FOR STRESS PERIOD   22   TIME STEP   26
 
 SOLVING FOR HEAD 
                                                   Max.-Head-Change                         Max.-Flux-Residual
  Residual-Control   Outer-Iter.   Inner-Iter.     Column Row Layer    Maximum-Head-Change  Column Row Layer    Maximum-Flux-Residual          L2-NORM 
          0                 1           2             4    7     1       0.4564648450E-01       4    7    1         0.2401945452E+01      0.5223817961E+01
          0                 2           2             4    7     1      -0.1234518807E-01       4    7    1        -0.6644663921E+00      0.1542880909E+01
          0                 3           2             4    7     1       0.8309125716E-02       4    7    1         0.4585591683E+00      0.1120132316E+01
          0                 4           2             4    7     1      -0.3308301167E-03       4    7    1        -0.1876656691E-01      0.4580537600E-01
          0                 5           1             4   13     1      -0.2745957476E-04       4   13    1        -0.1707620626E-02      0.3475546568E-02

    ------------------------------------------------
       NWT REQUIRED            5 OUTER ITERATIONS 
       AND A TOTAL OF          9 INNER ITERATIONS.
    ------------------------------------------------

 NO OUTPUT CONTROL FOR STRESS PERIOD   22   TIME STEP   27
 
 SOLVING FOR HEAD 
                                                   Max.-Head-Change                         Max.-Flux-Residual
  Residual-Control   Outer-Iter.   Inner-Iter.     Column Row Layer    Maximum-Head-Change  Column Row Layer    Maximum-Flux-Residual          L2-NORM 
          0                 1           2             4    7     1       0.4506437278E-01       4    7    1         0.2371779955E+01      0.5123647589E+01
          0                 2           2             4    7     1      -0.2952557018E-01       4    7    1        -0.1586579510E+01      0.3802587406E+01
          0                 3           2             4    7     1       0.2116920161E-01       4    7    1         0.1168071333E+01      0.2864190426E+01
          0                 4           2             4    7     1      -0.8423450197E-03       4    7    1        -0.4777360919E-01      0.1178628988E+00
          0                 5           1             4    7     1       0.1038647495E-04       4    7    1         0.6053882607E-03      0.1616079986E-02

    ------------------------------------------------
       NWT REQUIRED            5 OUTER ITERATIONS 
       AND A TOTAL OF          9 INNER ITERATIONS.
    ------------------------------------------------

 NO OUTPUT CONTROL FOR STRESS PERIOD   22   TIME STEP   28
 
 SOLVING FOR HEAD 
                                                   Max.-Head-Change                         Max.-Flux-Residual
  Residual-Control   Outer-Iter.   Inner-Iter.     Column Row Layer    Maximum-Head-Change  Column Row Layer    Maximum-Flux-Residual          L2-NORM 
          0                 1           2             4    7     1       0.4450956217E-01       4    7    1         0.2342863053E+01      0.5040923991E+01
          0                 2           2             4    7     1      -0.1360954337E-01       4    7    1        -0.7323538109E+00      0.1705337713E+01
          0                 3           2             4    7     1       0.8793886994E-02       4    7    1         0.4853068280E+00      0.1186675301E+01
          0                 4           2             4    7     1       0.5348710339E-03       5    8    1         0.2971632694E-01      0.7299779760E-01
          0                 5           2             4    7     1       0.1229123352E-03       4    7    1         0.6781417165E-02      0.1685839575E-01
          0                 6           1             4    7     1       0.2560997762E-04       5    8    1         0.1413326945E-02      0.3728630131E-02

    ------------------------------------------------
       NWT REQUIRED            6 OUTER ITERATIONS 
       AND A TOTAL OF         11 INNER ITERATIONS.
    ------------------------------------------------

 NO OUTPUT CONTROL FOR STRESS PERIOD   22   TIME STEP   29
 
 SOLVING FOR HEAD 
                                                   Max.-Head-Change                         Max.-Flux-Residual
  Residual-Control   Outer-Iter.   Inner-Iter.     Column Row Layer    Maximum-Head-Change  Column Row Layer    Maximum-Flux-Residual          L2-NORM 
          0                 1           2             4    7     1       0.4392841416E-01       4    7    1         0.2312675278E+01      0.4946290220E+01
          0                 2           2             4    7     1      -0.2699339207E-01       4    7    1        -0.1450696705E+01      0.3465918014E+01
          0                 3           2             4    7     1       0.2212049779E-01       4    7    1         0.1220559185E+01      0.2993393428E+01
          0                 4           2             4    7     1      -0.8801982320E-03       4    7    1        -0.4992027871E-01      0.1232109567E+00
          0                 5           1             4    7     1       0.1085322117E-04       4    7    1         0.6325862391E-03      0.1697334221E-02

    ------------------------------------------------
       NWT REQUIRED            5 OUTER ITERATIONS 
       AND A TOTAL OF          9 INNER ITERATIONS.
    ------------------------------------------------

 NO OUTPUT CONTROL FOR STRESS PERIOD   22   TIME STEP   30



 STREAM LISTING     PERIOD     22   STEP       30

 LAYER ROW COL. STREAM  RCH.  FLOW INTO     FLOW TO   FLOW OUT OF   OVRLND.     DIRECT     STREAM       STREAM     STREAM     STREAM   STREAMBED  STREAMBED
                SEG.NO.  NO.  STRM. RCH.    AQUIFER    STRM. RCH.    RUNOFF     PRECIP       ET          HEAD       DEPTH      WIDTH   CONDCTNC.   GRADIENT

   1    1    1     1     1    1.8324E+01  2.0985E-01   1.8114E+01  0.000E+00  0.000E+00  0.000E+00  1.09412E+03  1.071E+00  1.146E+01  5.155E-02  1.357E+00
   1    2    2     1     2    1.8114E+01  3.2368E-01   1.7790E+01  0.000E+00  0.000E+00  0.000E+00  1.08912E+03  1.066E+00  1.137E+01  7.960E-02  1.355E+00
   1    3    3     1     3    1.7790E+01  2.7478E-01   1.7515E+01  0.000E+00  0.000E+00  0.000E+00  1.08348E+03  1.061E+00  1.128E+01  6.766E-02  1.354E+00
   1    3    4     1     4    1.7515E+01  2.5199E-01   1.7263E+01  0.000E+00  0.000E+00  0.000E+00  1.07846E+03  1.056E+00  1.119E+01  6.212E-02  1.352E+00
   1    4    5     2     1    1.5263E+01  3.0363E-01   1.4960E+01  0.000E+00  0.000E+00  0.000E+00  1.07283E+03  8.927E-01  1.200E+01  7.800E-02  1.298E+00
   1    5    6     2     2    1.4960E+01  2.3299E-01   1.4727E+01  0.000E+00  0.000E+00  0.000E+00  1.06739E+03  8.832E-01  1.200E+01  6.000E-02  1.294E+00
   1    6    6     2     3    1.4727E+01  2.3249E-01   1.4494E+01  0.000E+00  0.000E+00  0.000E+00  1.06267E+03  8.749E-01  1.200E+01  6.000E-02  1.292E+00
   1    7    6     2     4    1.4494E+01  2.3199E-01   1.4262E+01  0.000E+00  0.000E+00  0.000E+00  1.05794E+03  8.665E-01  1.200E+01  6.000E-02  1.289E+00
   1    8    6     2     5    1.4262E+01  2.3149E-01   1.4031E+01  0.000E+00  0.000E+00  0.000E+00  1.05322E+03  8.581E-01  1.200E+01  6.000E-02  1.286E+00
   1    3    5     3     1    2.0000E+00  2.8252E-01   1.7175E+00  0.000E+00  0.000E+00  0.000E+00  1.07555E+03  1.909E+00  9.636E+00  7.227E-02  1.955E+00
   1    3    6     3     2    1.7175E+00  2.4905E-01   1.4684E+00  0.000E+00  0.000E+00  0.000E+00  1.07264E+03  1.727E+00  8.909E+00  6.682E-02  1.864E+00
   1    3    7     3     3    1.4684E+00  1.9718E-01   1.2712E+00  0.000E+00  0.000E+00  0.000E+00  1.06987E+03  1.555E+00  8.218E+00  5.547E-02  1.777E+00
   1    4    8     3     4    1.2712E+00  2.2567E-01   1.0456E+00  0.000E+00  0.000E+00  0.000E+00  1.06682E+03  1.364E+00  7.455E+00  6.709E-02  1.682E+00
   1    5    8     3     5    1.0456E+00  1.5790E-01   8.8768E-01  0.000E+00  0.000E+00  0.000E+00  1.06362E+03  1.164E+00  6.655E+00  4.991E-02  1.582E+00
   1    6    8     3     6    8.8768E-01  5.5980E-02   8.3170E-01  0.000E+00  0.000E+00  0.000E+00  1.06158E+03  1.036E+00  6.145E+00  1.844E-02  1.518E+00
   1    5   10     4     1    1.0000E+01  9.0919E-02   9.9091E+00  0.000E+00  0.000E+00  0.000E+00  1.07836E+03  6.368E-01  1.000E+01  2.500E-02  1.212E+00
   1    5    9     4     2    9.9091E+00  1.8158E-01   9.7275E+00  0.000E+00  0.000E+00  0.000E+00  1.07154E+03  6.315E-01  1.000E+01  5.000E-02  1.211E+00
   1    6    8     4     3    9.7275E+00  1.2689E-01   9.6006E+00  0.000E+00  0.000E+00  0.000E+00  1.06381E+03  6.256E-01  1.000E+01  3.500E-02  1.209E+00
   1    6    8     5     1    1.0432E+01  2.2686E-01   1.0205E+01  0.000E+00  0.000E+00  0.000E+00  1.05868E+03  6.790E-01  1.542E+01  6.166E-02  1.226E+00
   1    7    7     5     2    1.0205E+01  2.7894E-01   9.9265E+00  0.000E+00  0.000E+00  0.000E+00  1.05417E+03  6.732E-01  1.519E+01  7.594E-02  1.224E+00
   1    8    7     5     3    9.9265E+00  1.9221E-01   9.7343E+00  0.000E+00  0.000E+00  0.000E+00  1.04992E+03  6.676E-01  1.497E+01  5.241E-02  1.223E+00
   1    8    6     5     4    9.7343E+00  1.3577E-01   9.5985E+00  0.000E+00  0.000E+00  0.000E+00  1.04691E+03  6.637E-01  1.482E+01  3.706E-02  1.221E+00
   1    9    6     6     1    9.5985E+00  2.2097E-01   9.3776E+00  0.000E+00  0.000E+00  0.000E+00  1.04341E+03  6.828E-01  1.200E+01  6.000E-02  1.228E+00
   1   10    7     6     2    9.3776E+00  2.2039E-01   9.1572E+00  0.000E+00  0.000E+00  0.000E+00  1.03885E+03  6.732E-01  1.200E+01  6.000E-02  1.224E+00
   1   11    7     6     3    9.1572E+00  2.1981E-01   8.9374E+00  0.000E+00  0.000E+00  0.000E+00  1.03430E+03  6.636E-01  1.200E+01  6.000E-02  1.221E+00
   1   12    7     6     4    8.9374E+00  2.1923E-01   8.7181E+00  0.000E+00  0.000E+00  0.000E+00  1.02974E+03  6.539E-01  1.200E+01  6.000E-02  1.218E+00
   1   13    7     6     5    8.7181E+00 -1.1341E-01   8.8315E+00  0.000E+00  0.000E+00  0.000E+00  1.02656E+03  6.515E-01  1.200E+01  2.400E-01 -1.575E-01
   1   14    9     7     1    1.5000E+02  1.3377E+00   1.4866E+02  0.000E+00  0.000E+00  0.000E+00  1.03987E+03  2.288E+00  5.529E+01  5.593E-01  7.972E-01
   1   13    8     7     2    1.4866E+02  1.8404E+00   1.4682E+02  0.000E+00  0.000E+00  0.000E+00  1.03478E+03  2.279E+00  5.526E+01  6.148E-01  9.979E-01
   1   13    7     7     3    1.4682E+02  1.4836E+00   1.4534E+02  0.000E+00  0.000E+00  0.000E+00  1.02969E+03  2.270E+00  5.522E+01  5.584E-01  8.855E-01
   1   13    6     8     1    1.5417E+02  8.4458E-01   1.5333E+02  0.000E+00  0.000E+00  0.000E+00  1.02472E+03  2.843E+00  4.122E+01  4.201E-01  6.702E-01
   1   13    5     8     2    1.5333E+02  1.2069E-01   1.5320E+02  0.000E+00  0.000E+00  0.000E+00  1.01846E+03  2.840E+00  4.118E+01  4.196E-01  9.588E-02
   1   13    4     8     3    1.5320E+02 -2.6619E+00   1.5587E+02  0.000E+00  0.000E+00  0.000E+00  1.01222E+03  2.848E+00  4.130E+01  4.209E+00 -2.108E-01
   1   13    3     8     4    1.5587E+02 -3.7935E+00   1.5966E+02  0.000E+00  0.000E+00  0.000E+00  1.00600E+03  2.871E+00  4.162E+01  4.242E+00 -2.981E-01
   1   13    2     8     5    1.5966E+02 -2.6944E+00   1.6235E+02  0.000E+00  0.000E+00  0.000E+00  9.99768E+02  2.893E+00  4.194E+01  4.274E+00 -2.101E-01
   1   13    1     8     6    1.6235E+02 -2.0365E+00   1.6439E+02  0.000E+00  0.000E+00  0.000E+00  9.94784E+02  2.909E+00  4.217E+01  2.579E+00 -2.633E-01
   1    8    6     9     1    1.4031E+01  0.0000E+00   1.4031E+01  0.000E+00  0.000E+00  0.000E+00  1.08153E+03  2.777E+00  4.000E+00  0.000E+00  1.926E+00
   1    8    5     9     2    1.4031E+01  0.0000E+00   1.4031E+01  0.000E+00  0.000E+00  0.000E+00  1.08103E+03  2.777E+00  4.000E+00  0.000E+00  1.926E+00





UNSATURATED ZONE PACKAGE VOLUMETRIC BUDGET FOR  TIME STEP    30 STRESS PERIOD   22
  ------------------------------------------------------------------------------



     CUMULATIVE VOLUMES      L**3       RATES FOR THIS TIME STEP      L**3/T
     ------------------                 ------------------------

           IN:                                      IN:
           ---                                      ---
        INFILTRATION =  1209761122.5178          INFILTRATION =          19.0409

          OUT:                                     OUT:
          ----                                     ----
              UZF ET =   984900651.4357                UZF ET =          15.3575
        UZF RECHARGE =      627361.4960          UZF RECHARGE =       0.0000E+00

            IN - OUT =   224233109.5862              IN - OUT =           3.6834

          STORAGE:                                 STORAGE:
          --------                                 --------
      STORAGE CHANGE =   224233631.4900        STORAGE CHANGE =           3.6834

 PERCENT DISCREPANCY IS DIFFERENCE BETWEEN IN-OUT MINUS CHANGE IN STORAGE
 DIVIDED BY THE AVERAGE OF IN AND OUT TIMES 100

 PERCENT DISCREPANCY =          -0.00     PERCENT DISCREPANCY =           0.00






1
  VOLUMETRIC BUDGET FOR AGRICULTURAL FIELDS AT  END OF TIME STEP   30, STRESS PERIOD  22
  ------------------------------------------------------------------------------

     CUMULATIVE VOLUMES      L**3       RATES FOR THIS TIME STEP      L**3/T
     ------------------                 ------------------------

           IN:                                      IN:
           ---                                      ---
               AG WELLS  =   368416480.0000                 AG WELLS  =           0.6025
      DIVERSION SEGMENTS =   598044480.0000        DIVERSION SEGMENTS =          14.0306
           GW IRRIGATION =           0.0000             GW IRRIGATION =           0.0000
           SW IRRIGATION =           0.0000             SW IRRIGATION =           0.0000
        SYSTEM LOSSES GW =           0.0000          SYSTEM LOSSES GW =           0.0000
        SYSTEM LOSSES SW =           0.0000          SYSTEM LOSSES SW =           0.0000

                TOTAL IN =   966460928.0000                  TOTAL IN =          14.6331

          OUT:                                     OUT:
          ----                                     ----
               AG WELLS  =           0.0000                 AG WELLS  =           0.0000
      DIVERSION SEGMENTS =           0.0000        DIVERSION SEGMENTS =           0.0000
           GW IRRIGATION =   368416480.0000             GW IRRIGATION =           0.6025
           SW IRRIGATION =   598056384.0000             SW IRRIGATION =          14.0309
        SYSTEM LOSSES GW =           0.0000          SYSTEM LOSSES GW =           0.0000
        SYSTEM LOSSES SW =           0.0000          SYSTEM LOSSES SW =           0.0000

               TOTAL OUT =   966472832.0000                 TOTAL OUT =          14.6334

                IN - OUT =      -11904.0000                  IN - OUT =      -2.7943E-04

     PERCENT DISCREPANCY =          -0.00         PERCENT DISCREPANCY =          -0.00



1
  VOLUMETRIC BUDGET FOR ENTIRE MODEL AT END OF TIME STEP   30, STRESS PERIOD  22
  ------------------------------------------------------------------------------

     CUMULATIVE VOLUMES      L**3       RATES FOR THIS TIME STEP      L**3/T
     ------------------                 ------------------------

           IN:                                      IN:
           ---                                      ---
             STORAGE     =   542446656.0000               STORAGE     =          11.3392
       CONSTANT HEAD     =           0.0000         CONSTANT HEAD     =           0.0000
     HEAD DEP BOUNDS     =    15807580.0000       HEAD DEP BOUNDS     =           0.2859
      STREAM LEAKAGE     =   662316736.0000        STREAM LEAKAGE     =          11.2017
        UZF RECHARGE     =      627361.5000          UZF RECHARGE     =           0.0000
               GW ET     =           0.0000                 GW ET     =           0.0000
     SURFACE LEAKAGE     =           0.0000       SURFACE LEAKAGE     =           0.0000
           AG WELLS      =           0.0000             AG WELLS      =           0.0000

                TOTAL IN =  1221198208.0000                  TOTAL IN =          22.8268

          OUT:                                     OUT:
          ----                                     ----
             STORAGE     =   235329248.0000               STORAGE     =          10.6367
       CONSTANT HEAD     =           0.0000         CONSTANT HEAD     =           0.0000
     HEAD DEP BOUNDS     =    16089833.0000       HEAD DEP BOUNDS     =           0.2878
      STREAM LEAKAGE     =   599340864.0000        STREAM LEAKAGE     =          11.2997
        UZF RECHARGE     =           0.0000          UZF RECHARGE     =           0.0000
               GW ET     =     2023766.7500                 GW ET     =           0.0000
     SURFACE LEAKAGE     =           0.0000       SURFACE LEAKAGE     =           0.0000
           AG WELLS      =   368416480.0000             AG WELLS      =           0.6025

               TOTAL OUT =  1221200128.0000                 TOTAL OUT =          22.8267

                IN - OUT =       -1920.0000                  IN - OUT =       8.7738E-05

     PERCENT DISCREPANCY =          -0.00         PERCENT DISCREPANCY =           0.00






         TIME SUMMARY AT END OF TIME STEP   30 IN STRESS PERIOD   22
                    SECONDS     MINUTES      HOURS       DAYS        YEARS
                    -----------------------------------------------------------
   TIME STEP LENGTH  87667.      1461.1      24.352      1.0147     2.77799E-03
 STRESS PERIOD TIME 2.63000E+06  43833.      730.56      30.440     8.33397E-02
         TOTAL TIME 5.53166E+07 9.21944E+05  15366.      640.24      1.7529    
1
1
                            STRESS PERIOD NO.   23, LENGTH =   2630000.    
                            -----------------------------------------------

                              NUMBER OF TIME STEPS =    30

                               MULTIPLIER FOR DELT =     1.000

                            INITIAL TIME STEP SIZE =   87666.66    

 REUSING NON-PARAMETER GHB CELLS FROM LAST STRESS PERIOD

      2 GHB CELLS

 REUSING STREAM SEGMENT DATA FROM LAST STRESS PERIOD



            AREAL INFILTRATION RATE
 READING ON UNIT   19 WITH FORMAT: (10F4.0)            

            1           2           3           4           5           6           7           8           9          10
 ........................................................................................................................
   1   1.2000E-09   0.000       0.000       0.000       0.000       0.000       0.000       0.000       0.000       0.000    
   2   2.1000E-09  2.0000E-09  8.0000E-10  8.5000E-09   0.000       0.000       0.000       0.000       0.000       0.000    
   3   5.0000E-10  1.1000E-09  8.8000E-09  5.5000E-09   0.000       0.000       0.000       0.000       0.000       0.000    
   4   8.5000E-09  1.1000E-09  1.1000E-09  1.1000E-09  2.0000E-09   0.000       0.000       0.000       0.000       0.000    
   5   8.5000E-09  1.1000E-09  1.1000E-09  1.1000E-09  1.1000E-09   0.000       0.000       0.000       0.000       0.000    
   6   8.5000E-09  5.2000E-09  2.1000E-09  1.1000E-09  1.5000E-09   0.000       0.000       0.000       0.000       0.000    
   7   8.5000E-09  5.2000E-09  2.1000E-09  1.2000E-09  2.0000E-09   0.000       0.000       0.000       0.000       0.000    
   8   5.0000E-10  5.2000E-09  2.1000E-09  1.2000E-09  5.0000E-09   0.000       0.000       0.000       0.000       0.000    
   9   5.0000E-10  5.2000E-09  2.1000E-09  1.2000E-09  5.0000E-09   0.000       0.000       0.000       0.000       0.000    
  10   5.0000E-10  5.2000E-09  2.1000E-09  1.2000E-09  5.8000E-09   0.000       0.000       0.000       0.000       0.000    
  11   1.0000E-10  1.1000E-09  1.1000E-09  1.2000E-09  5.0000E-09   0.000       0.000       0.000       0.000       0.000    
  12   1.1000E-09  1.1000E-09  1.1000E-09  1.1000E-09  2.0000E-09   0.000       0.000       0.000       0.000       0.000    
  13   1.1000E-09  2.2000E-09  2.2000E-09  2.1000E-09  1.0000E-09   0.000       0.000       0.000       0.000       0.000    
  14   2.0000E-10  5.5000E-09  5.5000E-09  5.2000E-09  1.0000E-09   0.000       0.000       0.000       0.000       0.000    
  15    0.000      8.8000E-09  8.8000E-09   0.000       0.000       0.000       0.000       0.000       0.000       0.000    

                  ET RATE =  5.000000E-09

 USING ET EXTINCTION DEPTH FROM PREVIOUS STRESS PERIOD. CURRENT PERIOD IS:      23

 USING EXTINCTION WATER CONTENT FROM PREVIOUS STRESS PERIOD. CURRENT PERIOD IS:      23

 USING AIR ENTRY PRESSURE FROM PREVIOUS STRESS PERIOD. CURRENT PERIOD IS:      23

 USING ROOT PRESSURE HEAD FROM PREVIOUS STRESS PERIOD. CURRENT PERIOD IS:      23

 USING ROOT ACTIVITY FROM PREVIOUS STRESS PERIOD. CURRENT PERIOD IS:      23

 PROCESSING AG STRESS PERIOD DATA

 READING AG STRESS PERIOD DATA

 READING IRRIGATION SEGMENT

 READING IRRIGATION WELL

 READING SUPPLEMENTAL WELL

 END PROCESSING AG STRESS PERIOD DATA OPTIONS
 
 SOLVING FOR HEAD 
                                                   Max.-Head-Change                         Max.-Flux-Residual
  Residual-Control   Outer-Iter.   Inner-Iter.     Column Row Layer    Maximum-Head-Change  Column Row Layer    Maximum-Flux-Residual          L2-NORM 
          0                 1           2             4    7     1       0.4335742070E-01       4    7    1         0.2282934708E+01      0.4859495303E+01
          0                 2           2             4    7     1      -0.4217523193E-02       4    7    1        -0.2282954165E+00      0.4859091093E+00
          0                 3           2             4    7     1       0.2871974161E-03       4    7    1         0.1598066765E-01      0.3400993223E-01
          0                 4           1             4    7     1      -0.1142785504E-04       4    7    1        -0.6536103201E-03      0.1390726885E-02

    ------------------------------------------------
       NWT REQUIRED            4 OUTER ITERATIONS 
       AND A TOTAL OF          7 INNER ITERATIONS.
    ------------------------------------------------

 NO OUTPUT CONTROL FOR STRESS PERIOD   23   TIME STEP    1
 
 SOLVING FOR HEAD 
                                                   Max.-Head-Change                         Max.-Flux-Residual
  Residual-Control   Outer-Iter.   Inner-Iter.     Column Row Layer    Maximum-Head-Change  Column Row Layer    Maximum-Flux-Residual          L2-NORM 
          0                 1           2             4    7     1       0.4277822542E-01       4    7    1         0.2252780073E+01      0.4770106753E+01
          0                 2           2             4    7     1      -0.4161183237E-02       4    7    1        -0.2252799489E+00      0.4769758481E+00
          0                 3           2             4    7     1       0.2833608741E-03       4    7    1         0.1576958486E-01      0.3338495076E-01
          0                 4           1             4    7     1      -0.1127519561E-04       4    7    1        -0.6449769999E-03      0.1365165942E-02

    ------------------------------------------------
       NWT REQUIRED            4 OUTER ITERATIONS 
       AND A TOTAL OF          7 INNER ITERATIONS.
    ------------------------------------------------

 NO OUTPUT CONTROL FOR STRESS PERIOD   23   TIME STEP    2
 
 SOLVING FOR HEAD 
                                                   Max.-Head-Change                         Max.-Flux-Residual
  Residual-Control   Outer-Iter.   Inner-Iter.     Column Row Layer    Maximum-Head-Change  Column Row Layer    Maximum-Flux-Residual          L2-NORM 
          0                 1           2             4    7     1       0.4220093219E-01       4    7    1         0.2222690975E+01      0.4683672798E+01
          0                 2           2             4    7     1      -0.4105028235E-02       4    7    1        -0.2222710307E+00      0.4683373961E+00
          0                 3           2             4    7     1       0.2795369279E-03       4    7    1         0.1555896057E-01      0.3278082363E-01
          0                 4           1             4    7     1      -0.1112303699E-04       4    7    1        -0.6363624661E-03      0.1340565337E-02

    ------------------------------------------------
       NWT REQUIRED            4 OUTER ITERATIONS 
       AND A TOTAL OF          7 INNER ITERATIONS.
    ------------------------------------------------

 NO OUTPUT CONTROL FOR STRESS PERIOD   23   TIME STEP    3
 
 SOLVING FOR HEAD 
                                                   Max.-Head-Change                         Max.-Flux-Residual
  Residual-Control   Outer-Iter.   Inner-Iter.     Column Row Layer    Maximum-Head-Change  Column Row Layer    Maximum-Flux-Residual          L2-NORM 
          0                 1           2             4    7     1       0.4162612464E-01       4    7    1         0.2192700484E+01      0.4600027727E+01
          0                 2           2             4    7     1      -0.4049114967E-02       4    7    1        -0.2192719696E+00      0.4599771083E+00
          0                 3           2             4    7     1       0.2757294431E-03       4    7    1         0.1534902632E-01      0.3219601435E-01
          0                 4           1             4    7     1      -0.1097153356E-04       4    7    1        -0.6277761290E-03      0.1316705369E-02

    ------------------------------------------------
       NWT REQUIRED            4 OUTER ITERATIONS 
       AND A TOTAL OF          7 INNER ITERATIONS.
    ------------------------------------------------

 NO OUTPUT CONTROL FOR STRESS PERIOD   23   TIME STEP    4
 
 SOLVING FOR HEAD 
                                                   Max.-Head-Change                         Max.-Flux-Residual
  Residual-Control   Outer-Iter.   Inner-Iter.     Column Row Layer    Maximum-Head-Change  Column Row Layer    Maximum-Flux-Residual          L2-NORM 
          0                 1           2             4    7     1       0.4105419533E-01       4    7    1         0.2162831525E+01      0.4519013734E+01
          0                 2           2             4    7     1      -0.3993481623E-02       4    7    1        -0.2162850583E+00      0.4518793905E+00
          0                 3           2             4    7     1       0.2719410211E-03       4    7    1         0.1513994260E-01      0.3162950904E-01
          0                 4           1             4    7     1      -0.1082078916E-04       4    7    1        -0.6192246028E-03      0.1293501646E-02

    ------------------------------------------------
       NWT REQUIRED            4 OUTER ITERATIONS 
       AND A TOTAL OF          7 INNER ITERATIONS.
    ------------------------------------------------

 NO OUTPUT CONTROL FOR STRESS PERIOD   23   TIME STEP    5
 
 SOLVING FOR HEAD 
                                                   Max.-Head-Change                         Max.-Flux-Residual
  Residual-Control   Outer-Iter.   Inner-Iter.     Column Row Layer    Maximum-Head-Change  Column Row Layer    Maximum-Flux-Residual          L2-NORM 
          0                 1           2             4    7     1       0.4048563673E-01       4    7    1         0.2133111787E+01      0.4440503652E+01
          0                 2           2             4    7     1      -0.3938176113E-02       4    7    1        -0.2133130661E+00      0.4440315682E+00
          0                 3           2             4    7     1       0.2681749232E-03       4    7    1         0.1493190321E-01      0.3108048578E-01
          0                 4           1             4    7     1      -0.1067093217E-04       4    7    1        -0.6107157778E-03      0.1271092483E-02

    ------------------------------------------------
       NWT REQUIRED            4 OUTER ITERATIONS 
       AND A TOTAL OF          7 INNER ITERATIONS.
    ------------------------------------------------

 NO OUTPUT CONTROL FOR STRESS PERIOD   23   TIME STEP    6
 
 SOLVING FOR HEAD 
                                                   Max.-Head-Change                         Max.-Flux-Residual
  Residual-Control   Outer-Iter.   Inner-Iter.     Column Row Layer    Maximum-Head-Change  Column Row Layer    Maximum-Flux-Residual          L2-NORM 
          0                 1           2             4    7     1       0.3992116284E-01       4    7    1         0.2103581475E+01      0.4364372743E+01
          0                 2           2             4    7     1      -0.3883267896E-02       4    7    1        -0.2103600139E+00      0.4364212344E+00
          0                 3           2             4    7     1       0.2644358798E-03       4    7    1         0.1472518967E-01      0.3054797903E-01
          0                 4           1             4    7     1      -0.1052215185E-04       4    7    1        -0.6022611583E-03      0.1249304385E-02

    ------------------------------------------------
       NWT REQUIRED            4 OUTER ITERATIONS 
       AND A TOTAL OF          7 INNER ITERATIONS.
    ------------------------------------------------

 NO OUTPUT CONTROL FOR STRESS PERIOD   23   TIME STEP    7
 
 SOLVING FOR HEAD 
                                                   Max.-Head-Change                         Max.-Flux-Residual
  Residual-Control   Outer-Iter.   Inner-Iter.     Column Row Layer    Maximum-Head-Change  Column Row Layer    Maximum-Flux-Residual          L2-NORM 
          0                 1           2             4    7     1       0.3936076226E-01       4    7    1         0.2074240929E+01      0.4290496614E+01
          0                 2           2             4    7     1      -0.3828755867E-02       4    7    1        -0.2074259362E+00      0.4290359361E+00
          0                 3           2             4    7     1       0.2607238164E-03       4    7    1         0.1451980437E-01      0.3003111729E-01
          0                 4           1             4    7     1      -0.1037444579E-04       4    7    1        -0.5938609102E-03      0.1228149770E-02

    ------------------------------------------------
       NWT REQUIRED            4 OUTER ITERATIONS 
       AND A TOTAL OF          7 INNER ITERATIONS.
    ------------------------------------------------

 NO OUTPUT CONTROL FOR STRESS PERIOD   23   TIME STEP    8
 
 SOLVING FOR HEAD 
                                                   Max.-Head-Change                         Max.-Flux-Residual
  Residual-Control   Outer-Iter.   Inner-Iter.     Column Row Layer    Maximum-Head-Change  Column Row Layer    Maximum-Flux-Residual          L2-NORM 
          0                 1           2             4    7     1       0.3880507139E-01       4    7    1         0.2045126241E+01      0.4218769746E+01
          0                 2           2             4    7     1      -0.3774701935E-02       4    7    1        -0.2045144422E+00      0.4218652667E+00
          0                 3           2             4    7     1       0.2570429477E-03       4    7    1         0.1431599993E-01      0.2952944206E-01
          0                 4           1             4    7     1      -0.1022798092E-04       4    7    1        -0.5855253107E-03      0.1207673752E-02

    ------------------------------------------------
       NWT REQUIRED            4 OUTER ITERATIONS 
       AND A TOTAL OF          7 INNER ITERATIONS.
    ------------------------------------------------

 NO OUTPUT CONTROL FOR STRESS PERIOD   23   TIME STEP    9
 
 SOLVING FOR HEAD 
                                                   Max.-Head-Change                         Max.-Flux-Residual
  Residual-Control   Outer-Iter.   Inner-Iter.     Column Row Layer    Maximum-Head-Change  Column Row Layer    Maximum-Flux-Residual          L2-NORM 
          0                 1           2             4    7     1       0.3825441518E-01       4    7    1         0.2016255734E+01      0.4149098073E+01
          0                 2           2             4    7     1      -0.3721137713E-02       4    7    1        -0.2016273648E+00      0.4148998477E+00
          0                 3           2             4    7     1       0.2533954264E-03       4    7    1         0.1411390467E-01      0.2904201782E-01
          0                 4           1             4    7     1      -0.1008284231E-04       4    7    1        -0.5772595923E-03      0.1187746803E-02

    ------------------------------------------------
       NWT REQUIRED            4 OUTER ITERATIONS 
       AND A TOTAL OF          7 INNER ITERATIONS.
    ------------------------------------------------

 NO OUTPUT CONTROL FOR STRESS PERIOD   23   TIME STEP   10
 
 SOLVING FOR HEAD 
                                                   Max.-Head-Change                         Max.-Flux-Residual
  Residual-Control   Outer-Iter.   Inner-Iter.     Column Row Layer    Maximum-Head-Change  Column Row Layer    Maximum-Flux-Residual          L2-NORM 
          0                 1           2             4    7     1       0.3770907632E-01       4    7    1         0.1987646257E+01      0.4081381050E+01
          0                 2           2             4    7     1      -0.3668090704E-02       4    7    1        -0.1987663889E+00      0.4081296563E+00
          0                 3           2             4    7     1       0.2497831256E-03       4    7    1         0.1391363654E-01      0.2856820970E-01
          0                 4           1             4    7     1      -0.9939105274E-05       4    7    1        -0.5690686116E-03      0.1168381114E-02

    ------------------------------------------------
       NWT REQUIRED            4 OUTER ITERATIONS 
       AND A TOTAL OF          7 INNER ITERATIONS.
    ------------------------------------------------

 NO OUTPUT CONTROL FOR STRESS PERIOD   23   TIME STEP   11
 
 SOLVING FOR HEAD 
                                                   Max.-Head-Change                         Max.-Flux-Residual
  Residual-Control   Outer-Iter.   Inner-Iter.     Column Row Layer    Maximum-Head-Change  Column Row Layer    Maximum-Flux-Residual          L2-NORM 
          0                 1           2             4    7     1       0.3716931259E-01       4    7    1         0.1959312468E+01      0.4015541637E+01
          0                 2           2             4    7     1      -0.3615585985E-02       4    7    1        -0.1959329806E+00      0.4015470118E+00
          0                 3           2             4    7     1       0.2462077533E-03       4    7    1         0.1371529817E-01      0.2810758194E-01
          0                 4           1             4    7     1      -0.9796838069E-05       4    7    1        -0.5609565578E-03      0.1149546076E-02

    ------------------------------------------------
       NWT REQUIRED            4 OUTER ITERATIONS 
       AND A TOTAL OF          7 INNER ITERATIONS.
    ------------------------------------------------

 NO OUTPUT CONTROL FOR STRESS PERIOD   23   TIME STEP   12
 
 SOLVING FOR HEAD 
                                                   Max.-Head-Change                         Max.-Flux-Residual
  Residual-Control   Outer-Iter.   Inner-Iter.     Column Row Layer    Maximum-Head-Change  Column Row Layer    Maximum-Flux-Residual          L2-NORM 
          0                 1           2             4    7     1       0.3663521136E-01       4    7    1         0.1931260392E+01      0.3951472897E+01
          0                 2           2             4    7     1      -0.3563625003E-02       4    7    1        -0.1931277426E+00      0.3948647942E+00
          0                 3           2             4    7     1       0.2426694071E-03       4    7    1         0.1351893170E-01      0.2763993617E-01
          0                 4           1             4    7     1      -0.9656043921E-05       4    7    1        -0.5529251475E-03      0.1130460289E-02

    ------------------------------------------------
       NWT REQUIRED            4 OUTER ITERATIONS 
       AND A TOTAL OF          7 INNER ITERATIONS.
    ------------------------------------------------

 NO OUTPUT CONTROL FOR STRESS PERIOD   23   TIME STEP   13
 
 SOLVING FOR HEAD 
                                                   Max.-Head-Change                         Max.-Flux-Residual
  Residual-Control   Outer-Iter.   Inner-Iter.     Column Row Layer    Maximum-Head-Change  Column Row Layer    Maximum-Flux-Residual          L2-NORM 
          0                 1           2             5    8     1       0.1631351439E+00       5    8    1         0.8953837703E+01      0.9692606684E+01
          0                 2           2             5    8     1       0.6445035514E-01       5    8    1         0.3562204647E+01      0.3581485092E+01
          0                 3           2             5    8     1       0.2546271987E-01       5    8    1         0.1404974805E+01      0.1405241781E+01
          0                 4           2             5    8     1       0.1005969994E-01       5    8    1         0.5552119110E+00      0.5552136490E+00
          0                 5           1             5    8     1       0.3974344953E-02       5    8    1         0.2193449592E+00      0.2193459662E+00
          0                 6           1             5    8     1       0.1570168315E-02       5    8    1         0.8665828603E-01      0.8665865388E-01
          0                 7           1             5    8     1       0.6203358872E-03       5    8    1         0.3423660306E-01      0.3423674952E-01
          0                 8           1             5    8     1       0.2450798590E-03       5    8    1         0.1352606489E-01      0.1352612269E-01
          0                 9           1             5    8     1       0.9682518657E-04       5    8    1         0.5343824670E-02      0.5343847495E-02

    ------------------------------------------------
       NWT REQUIRED            9 OUTER ITERATIONS 
       AND A TOTAL OF         13 INNER ITERATIONS.
    ------------------------------------------------

 NO OUTPUT CONTROL FOR STRESS PERIOD   23   TIME STEP   14
 
 SOLVING FOR HEAD 
                                                   Max.-Head-Change                         Max.-Flux-Residual
  Residual-Control   Outer-Iter.   Inner-Iter.     Column Row Layer    Maximum-Head-Change  Column Row Layer    Maximum-Flux-Residual          L2-NORM 
          0                 1           2             5    8     1       0.1899177767E+00       5    8    1         0.1042024529E+02      0.1111436083E+02
          0                 2           2             5    8     1       0.7502739437E-01       5    8    1         0.4147364835E+01      0.4165342552E+01
          0                 3           2             5    8     1       0.2963985613E-01       5    8    1         0.1635481752E+01      0.1635738233E+01
          0                 4           2             5    8     1       0.1170936114E-01       5    8    1         0.6462919537E+00      0.6462939156E+00
          0                 5           1             5    8     1       0.4629783454E-02       5    8    1         0.2553669093E+00      0.2553679669E+00
          0                 6           1             5    8     1       0.1830483049E-02       5    8    1         0.1009652391E+00      0.1009656526E+00
          0                 7           1             5    8     1       0.7237204138E-03       5    8    1         0.3991872997E-01      0.3991889348E-01
          0                 8           1             5    8     1       0.2861382816E-03       5    8    1         0.1578272676E-01      0.1578279137E-01
          0                 9           1             5    8     1       0.1131308678E-03       5    8    1         0.6240037432E-02      0.6240062975E-02
          0                10           1             5    8     1       0.4472870022E-04       5    8    1         0.2467131946E-02      0.2467142056E-02

    ------------------------------------------------
       NWT REQUIRED           10 OUTER ITERATIONS 
       AND A TOTAL OF         14 INNER ITERATIONS.
    ------------------------------------------------

 NO OUTPUT CONTROL FOR STRESS PERIOD   23   TIME STEP   15
 
 SOLVING FOR HEAD 
                                                   Max.-Head-Change                         Max.-Flux-Residual
  Residual-Control   Outer-Iter.   Inner-Iter.     Column Row Layer    Maximum-Head-Change  Column Row Layer    Maximum-Flux-Residual          L2-NORM 
          0                 1           2             5    8     1       0.1711781390E+00       5    8    1         0.9367815710E+01      0.1022370904E+02
          0                 2           2             5    8     1       0.6767402552E-01       5    8    1         0.3740538177E+01      0.3762879817E+01
          0                 3           2             5    8     1       0.2675444071E-01       5    8    1         0.1475251295E+01      0.1475571969E+01
          0                 4           2             5    8     1       0.1057721065E-01       5    8    1         0.5834740243E+00      0.5834758983E+00
          0                 5           1             5    8     1       0.4181642161E-02       5    8    1         0.2306596015E+00      0.2306606479E+00
          0                 6           1             5    8     1       0.1653189953E-02       5    8    1         0.9119114182E-01      0.9119151325E-01
          0                 7           1             5    8     1       0.6535799471E-03       5    8    1         0.3605186522E-01      0.3605201337E-01
          0                 8           1             5    8     1       0.2583894093E-03       5    8    1         0.1425292607E-01      0.1425298455E-01
          0                 9           1             5    8     1       0.1021529022E-03       5    8    1         0.5634819419E-02      0.5634842533E-02
          0                10           1             5    8     1       0.4038561625E-04       5    8    1         0.2227696572E-02      0.2227705707E-02

    ------------------------------------------------
       NWT REQUIRED           10 OUTER ITERATIONS 
       AND A TOTAL OF         14 INNER ITERATIONS.
    ------------------------------------------------

 NO OUTPUT CONTROL FOR STRESS PERIOD   23   TIME STEP   16
 
 SOLVING FOR HEAD 
                                                   Max.-Head-Change                         Max.-Flux-Residual
  Residual-Control   Outer-Iter.   Inner-Iter.     Column Row Layer    Maximum-Head-Change  Column Row Layer    Maximum-Flux-Residual          L2-NORM 
          0                 1           2             5    8     1       0.1546861325E+00       5    8    1         0.8447265666E+01      0.9483020057E+01
          0                 2           2             5    8     1       0.1490053818E-01       5    8    1         0.8305791787E+00      0.9357015409E+00
          0                 3           2             5    8     1       0.4884966401E-03       5    8    1         0.2632593630E-01      0.4040506686E-01
          0                 4           1             5    8     1       0.1601554652E-04       5    8    1         0.9075769217E-03      0.1522394186E-02

    ------------------------------------------------
       NWT REQUIRED            4 OUTER ITERATIONS 
       AND A TOTAL OF          7 INNER ITERATIONS.
    ------------------------------------------------

 NO OUTPUT CONTROL FOR STRESS PERIOD   23   TIME STEP   17
 
 SOLVING FOR HEAD 
                                                   Max.-Head-Change                         Max.-Flux-Residual
  Residual-Control   Outer-Iter.   Inner-Iter.     Column Row Layer    Maximum-Head-Change  Column Row Layer    Maximum-Flux-Residual          L2-NORM 
          0                 1           2             4    8     1       0.4040357609E-01       5    8    1        -0.2229267619E+01      0.4933476956E+01
          0                 2           2             4    8     1      -0.3930258425E-02       5    8    1         0.2223877541E+00      0.4930981493E+00
          0                 3           2             4    8     1       0.2676363609E-03       5    8    1        -0.1556729461E-01      0.3451678112E-01
          0                 4           1             4    8     1      -0.1064948401E-04       5    8    1         0.6367025544E-03      0.1411730437E-02

    ------------------------------------------------
       NWT REQUIRED            4 OUTER ITERATIONS 
       AND A TOTAL OF          7 INNER ITERATIONS.
    ------------------------------------------------

 NO OUTPUT CONTROL FOR STRESS PERIOD   23   TIME STEP   18
 
 SOLVING FOR HEAD 
                                                   Max.-Head-Change                         Max.-Flux-Residual
  Residual-Control   Outer-Iter.   Inner-Iter.     Column Row Layer    Maximum-Head-Change  Column Row Layer    Maximum-Flux-Residual          L2-NORM 
          0                 1           2             4    8     1       0.3859116283E-01       4    8    1         0.2098783781E+01      0.4704149984E+01
          0                 2           2             4    8     1      -0.3753841007E-02       4    8    1        -0.2098763892E+00      0.4704046571E+00
          0                 3           2             4    8     1       0.2556229183E-03       4    8    1         0.1469137240E-01      0.3292824003E-01
          0                 4           1             4    8     1      -0.1017145856E-04       4    8    1        -0.6008778887E-03      0.1346750145E-02

    ------------------------------------------------
       NWT REQUIRED            4 OUTER ITERATIONS 
       AND A TOTAL OF          7 INNER ITERATIONS.
    ------------------------------------------------

 NO OUTPUT CONTROL FOR STRESS PERIOD   23   TIME STEP   19
 
 SOLVING FOR HEAD 
                                                   Max.-Head-Change                         Max.-Flux-Residual
  Residual-Control   Outer-Iter.   Inner-Iter.     Column Row Layer    Maximum-Head-Change  Column Row Layer    Maximum-Flux-Residual          L2-NORM 
          0                 1           2             4    8     1       0.3691567829E-01       4    8    1         0.2004643565E+01      0.4497466059E+01
          0                 2           2             4    8     1      -0.3590868281E-02       4    8    1        -0.2004628181E+00      0.4497383578E+00
          0                 3           2             4    8     1       0.2445250189E-03       4    8    1         0.1403241788E-01      0.3148160874E-01
          0                 4           1             4    8     1      -0.9729863163E-05       4    8    1        -0.5739266180E-03      0.1287586259E-02

    ------------------------------------------------
       NWT REQUIRED            4 OUTER ITERATIONS 
       AND A TOTAL OF          7 INNER ITERATIONS.
    ------------------------------------------------

 NO OUTPUT CONTROL FOR STRESS PERIOD   23   TIME STEP   20
 
 SOLVING FOR HEAD 
                                                   Max.-Head-Change                         Max.-Flux-Residual
  Residual-Control   Outer-Iter.   Inner-Iter.     Column Row Layer    Maximum-Head-Change  Column Row Layer    Maximum-Flux-Residual          L2-NORM 
          0                 1           2             4    8     1       0.3536522722E-01       4    8    1         0.1917609216E+01      0.4311141907E+01
          0                 2           2             4    8     1      -0.3440056761E-02       4    8    1        -0.1917597518E+00      0.4311077532E+00
          0                 3           2             4    8     1       0.2342552636E-03       4    8    1         0.1342319949E-01      0.3017746554E-01
          0                 4           1             4    8     1      -0.9321220163E-05       4    8    1        -0.5490095737E-03      0.1234240001E-02

    ------------------------------------------------
       NWT REQUIRED            4 OUTER ITERATIONS 
       AND A TOTAL OF          7 INNER ITERATIONS.
    ------------------------------------------------

 NO OUTPUT CONTROL FOR STRESS PERIOD   23   TIME STEP   21
 
 SOLVING FOR HEAD 
                                                   Max.-Head-Change                         Max.-Flux-Residual
  Residual-Control   Outer-Iter.   Inner-Iter.     Column Row Layer    Maximum-Head-Change  Column Row Layer    Maximum-Flux-Residual          L2-NORM 
          0                 1           2             4    7     1       0.3443563660E-01       4    8    1         0.1837070717E+01      0.4142909100E+01
          0                 2           2             4    7     1      -0.3349661121E-02       4    8    1        -0.1837062028E+00      0.4142857799E+00
          0                 3           2             4    7     1       0.2280993802E-03       4    8    1         0.1285944796E-01      0.2899993868E-01
          0                 4           1             4    7     1      -0.9076288496E-05       4    8    1        -0.5259521163E-03      0.1186086824E-02

    ------------------------------------------------
       NWT REQUIRED            4 OUTER ITERATIONS 
       AND A TOTAL OF          7 INNER ITERATIONS.
    ------------------------------------------------

 NO OUTPUT CONTROL FOR STRESS PERIOD   23   TIME STEP   22
 
 SOLVING FOR HEAD 
                                                   Max.-Head-Change                         Max.-Flux-Residual
  Residual-Control   Outer-Iter.   Inner-Iter.     Column Row Layer    Maximum-Head-Change  Column Row Layer    Maximum-Flux-Residual          L2-NORM 
          0                 1           2             4    7     1       0.3407258176E-01       4    7    1         0.1789231153E+01      0.3990728499E+01
          0                 2           2             4    7     1      -0.3314347650E-02       4    7    1        -0.1789241468E+00      0.3990688878E+00
          0                 3           2             4    7     1       0.2256946454E-03       4    7    1         0.1252468591E-01      0.2793476275E-01
          0                 4           1             4    7     1      -0.8980601803E-05       4    7    1        -0.5122604070E-03      0.1142534553E-02

    ------------------------------------------------
       NWT REQUIRED            4 OUTER ITERATIONS 
       AND A TOTAL OF          7 INNER ITERATIONS.
    ------------------------------------------------

 NO OUTPUT CONTROL FOR STRESS PERIOD   23   TIME STEP   23
 
 SOLVING FOR HEAD 
                                                   Max.-Head-Change                         Max.-Flux-Residual
  Residual-Control   Outer-Iter.   Inner-Iter.     Column Row Layer    Maximum-Head-Change  Column Row Layer    Maximum-Flux-Residual          L2-NORM 
          0                 1           2             4    7     1       0.3368612305E-01       4    7    1         0.1770370466E+01      0.3852772180E+01
          0                 2           2             4    7     1      -0.3276962348E-02       4    7    1        -0.1770381726E+00      0.3859687453E+00
          0                 3           2             4    7     1       0.2231488207E-03       4    7    1         0.1239266685E-01      0.2701771135E-01
          0                 4           1             4    7     1      -0.8879301373E-05       4    7    1        -0.5068608380E-03      0.1104995857E-02

    ------------------------------------------------
       NWT REQUIRED            4 OUTER ITERATIONS 
       AND A TOTAL OF          7 INNER ITERATIONS.
    ------------------------------------------------

 NO OUTPUT CONTROL FOR STRESS PERIOD   23   TIME STEP   24
 
 SOLVING FOR HEAD 
                                                   Max.-Head-Change                         Max.-Flux-Residual
  Residual-Control   Outer-Iter.   Inner-Iter.     Column Row Layer    Maximum-Head-Change  Column Row Layer    Maximum-Flux-Residual          L2-NORM 
          0                 1           2             4    7     1       0.3327919944E-01       4    7    1         0.1750270689E+01      0.3726902580E+01
          0                 2           2             4    7     1      -0.3237176831E-02       4    7    1        -0.1750282703E+00      0.3726911334E+00
          0                 3           2             4    7     1       0.2204395633E-03       4    7    1         0.1225197285E-01      0.2608828941E-01
          0                 4           1             4    7     1      -0.8771497384E-05       4    7    1        -0.5011064436E-03      0.1067014149E-02

    ------------------------------------------------
       NWT REQUIRED            4 OUTER ITERATIONS 
       AND A TOTAL OF          7 INNER ITERATIONS.
    ------------------------------------------------

 NO OUTPUT CONTROL FOR STRESS PERIOD   23   TIME STEP   25
 
 SOLVING FOR HEAD 
                                                   Max.-Head-Change                         Max.-Flux-Residual
  Residual-Control   Outer-Iter.   Inner-Iter.     Column Row Layer    Maximum-Head-Change  Column Row Layer    Maximum-Flux-Residual          L2-NORM 
          0                 1           2             4    7     1       0.3285642874E-01       4    7    1         0.1729146336E+01      0.3611633467E+01
          0                 2           2             4    7     1      -0.3196053534E-02       4    7    1        -0.1729158913E+00      0.3611643363E+00
          0                 3           2             4    7     1       0.2176392115E-03       4    7    1         0.1210410572E-01      0.2528142566E-01
          0                 4           1             4    7     1      -0.8660068719E-05       4    7    1        -0.4950586685E-03      0.1034004261E-02

    ------------------------------------------------
       NWT REQUIRED            4 OUTER ITERATIONS 
       AND A TOTAL OF          7 INNER ITERATIONS.
    ------------------------------------------------

 NO OUTPUT CONTROL FOR STRESS PERIOD   23   TIME STEP   26
 
 SOLVING FOR HEAD 
                                                   Max.-Head-Change                         Max.-Flux-Residual
  Residual-Control   Outer-Iter.   Inner-Iter.     Column Row Layer    Maximum-Head-Change  Column Row Layer    Maximum-Flux-Residual          L2-NORM 
          0                 1           2             4    7     1       0.3242060411E-01       4    7    1         0.1707174759E+01      0.3506419238E+01
          0                 2           2             4    7     1      -0.3153660224E-02       4    7    1        -0.1707187745E+00      0.3506430888E+00
          0                 3           2             4    7     1       0.2147523790E-03       4    7    1         0.1195030708E-01      0.2454496236E-01
          0                 4           1             4    7     1      -0.8545199004E-05       4    7    1        -0.4887682926E-03      0.1003883479E-02

    ------------------------------------------------
       NWT REQUIRED            4 OUTER ITERATIONS 
       AND A TOTAL OF          7 INNER ITERATIONS.
    ------------------------------------------------

 NO OUTPUT CONTROL FOR STRESS PERIOD   23   TIME STEP   27
 
 SOLVING FOR HEAD 
                                                   Max.-Head-Change                         Max.-Flux-Residual
  Residual-Control   Outer-Iter.   Inner-Iter.     Column Row Layer    Maximum-Head-Change  Column Row Layer    Maximum-Flux-Residual          L2-NORM 
          0                 1           2             4    7     1       0.3197475442E-01       4    7    1         0.1684533694E+01      0.3410082534E+01
          0                 2           2             4    7     1      -0.3110291565E-02       4    7    1        -0.1684546957E+00      0.3410093828E+00
          0                 3           2             4    7     1       0.2117991311E-03       4    7    1         0.1179182125E-01      0.2387059023E-01
          0                 4           1             4    7     1      -0.8427686766E-05       4    7    1        -0.4822862302E-03      0.9762991506E-03

    ------------------------------------------------
       NWT REQUIRED            4 OUTER ITERATIONS 
       AND A TOTAL OF          7 INNER ITERATIONS.
    ------------------------------------------------

 NO OUTPUT CONTROL FOR STRESS PERIOD   23   TIME STEP   28
 
 SOLVING FOR HEAD 
                                                   Max.-Head-Change                         Max.-Flux-Residual
  Residual-Control   Outer-Iter.   Inner-Iter.     Column Row Layer    Maximum-Head-Change  Column Row Layer    Maximum-Flux-Residual          L2-NORM 
          0                 1           2             4    7     1       0.3152142799E-01       4    7    1         0.1661372836E+01      0.3321581758E+01
          0                 2           2             4    7     1      -0.3066195467E-02       4    7    1        -0.1661386267E+00      0.3321593378E+00
          0                 3           2             4    7     1       0.2087963482E-03       4    7    1         0.1162969619E-01      0.2325111759E-01
          0                 4           1             4    7     1      -0.8308203082E-05       4    7    1        -0.4756553017E-03      0.9509660744E-03

    ------------------------------------------------
       NWT REQUIRED            4 OUTER ITERATIONS 
       AND A TOTAL OF          7 INNER ITERATIONS.
    ------------------------------------------------

 NO OUTPUT CONTROL FOR STRESS PERIOD   23   TIME STEP   29
 
 SOLVING FOR HEAD 
                                                   Max.-Head-Change                         Max.-Flux-Residual
  Residual-Control   Outer-Iter.   Inner-Iter.     Column Row Layer    Maximum-Head-Change  Column Row Layer    Maximum-Flux-Residual          L2-NORM 
          0                 1           2             4    7     1       0.3106259183E-01       4    7    1         0.1637809615E+01      0.3239996328E+01
          0                 2           2             4    7     1      -0.3021563291E-02       4    7    1        -0.1637823121E+00      0.3240008220E+00
          0                 3           2             4    7     1       0.2057570616E-03       4    7    1         0.1146475401E-01      0.2268002977E-01
          0                 4           1             4    7     1      -0.8187267179E-05       4    7    1        -0.4689091647E-03      0.9276160267E-03

    ------------------------------------------------
       NWT REQUIRED            4 OUTER ITERATIONS 
       AND A TOTAL OF          7 INNER ITERATIONS.
    ------------------------------------------------

 NO OUTPUT CONTROL FOR STRESS PERIOD   23   TIME STEP   30



 STREAM LISTING     PERIOD     23   STEP       30

 LAYER ROW COL. STREAM  RCH.  FLOW INTO     FLOW TO   FLOW OUT OF   OVRLND.     DIRECT     STREAM       STREAM     STREAM     STREAM   STREAMBED  STREAMBED
                SEG.NO.  NO.  STRM. RCH.    AQUIFER    STRM. RCH.    RUNOFF     PRECIP       ET          HEAD       DEPTH      WIDTH   CONDCTNC.   GRADIENT

   1    1    1     1     1    1.6500E+01  1.9759E-01   1.6303E+01  0.000E+00  0.000E+00  0.000E+00  1.09409E+03  1.039E+00  1.087E+01  4.893E-02  1.346E+00
   1    2    2     1     2    1.6303E+01  3.0466E-01   1.5998E+01  0.000E+00  0.000E+00  0.000E+00  1.08909E+03  1.034E+00  1.079E+01  7.552E-02  1.345E+00
   1    3    3     1     3    1.5998E+01  2.5853E-01   1.5739E+01  0.000E+00  0.000E+00  0.000E+00  1.08345E+03  1.029E+00  1.070E+01  6.417E-02  1.343E+00
   1    3    4     1     4    1.5739E+01  2.3700E-01   1.5502E+01  0.000E+00  0.000E+00  0.000E+00  1.07843E+03  1.024E+00  1.061E+01  5.890E-02  1.341E+00
   1    4    5     2     1    1.3502E+01  2.9865E-01   1.3204E+01  0.000E+00  0.000E+00  0.000E+00  1.07276E+03  8.289E-01  1.200E+01  7.800E-02  1.276E+00
   1    5    6     2     2    1.3204E+01  2.2914E-01   1.2975E+01  0.000E+00  0.000E+00  0.000E+00  1.06733E+03  8.190E-01  1.200E+01  6.000E-02  1.273E+00
   1    6    6     2     3    1.2975E+01  2.2862E-01   1.2746E+01  0.000E+00  0.000E+00  0.000E+00  1.06260E+03  8.104E-01  1.200E+01  6.000E-02  1.270E+00
   1    7    6     2     4    1.2746E+01  2.2810E-01   1.2518E+01  0.000E+00  0.000E+00  0.000E+00  1.05788E+03  8.017E-01  1.200E+01  6.000E-02  1.267E+00
   1    8    6     2     5    1.2518E+01  2.2758E-01   1.2290E+01  0.000E+00  0.000E+00  0.000E+00  1.05315E+03  7.930E-01  1.200E+01  6.000E-02  1.264E+00
   1    3    5     3     1    2.0000E+00  2.8252E-01   1.7175E+00  0.000E+00  0.000E+00  0.000E+00  1.07555E+03  1.909E+00  9.636E+00  7.227E-02  1.955E+00
   1    3    6     3     2    1.7175E+00  2.4905E-01   1.4684E+00  0.000E+00  0.000E+00  0.000E+00  1.07264E+03  1.727E+00  8.909E+00  6.682E-02  1.864E+00
   1    3    7     3     3    1.4684E+00  1.9718E-01   1.2712E+00  0.000E+00  0.000E+00  0.000E+00  1.06987E+03  1.555E+00  8.218E+00  5.547E-02  1.777E+00
   1    4    8     3     4    1.2712E+00  2.2567E-01   1.0456E+00  0.000E+00  0.000E+00  0.000E+00  1.06682E+03  1.364E+00  7.455E+00  6.709E-02  1.682E+00
   1    5    8     3     5    1.0456E+00  1.5790E-01   8.8768E-01  0.000E+00  0.000E+00  0.000E+00  1.06362E+03  1.164E+00  6.655E+00  4.991E-02  1.582E+00
   1    6    8     3     6    8.8768E-01  5.5980E-02   8.3170E-01  0.000E+00  0.000E+00  0.000E+00  1.06158E+03  1.036E+00  6.145E+00  1.844E-02  1.518E+00
   1    5   10     4     1    1.0000E+01  9.0919E-02   9.9091E+00  0.000E+00  0.000E+00  0.000E+00  1.07836E+03  6.368E-01  1.000E+01  2.500E-02  1.212E+00
   1    5    9     4     2    9.9091E+00  1.8158E-01   9.7275E+00  0.000E+00  0.000E+00  0.000E+00  1.07154E+03  6.315E-01  1.000E+01  5.000E-02  1.211E+00
   1    6    8     4     3    9.7275E+00  1.2689E-01   9.6006E+00  0.000E+00  0.000E+00  0.000E+00  1.06381E+03  6.256E-01  1.000E+01  3.500E-02  1.209E+00
   1    6    8     5     1    1.0432E+01  2.2686E-01   1.0205E+01  0.000E+00  0.000E+00  0.000E+00  1.05868E+03  6.790E-01  1.542E+01  6.166E-02  1.226E+00
   1    7    7     5     2    1.0205E+01  2.7894E-01   9.9265E+00  0.000E+00  0.000E+00  0.000E+00  1.05417E+03  6.732E-01  1.519E+01  7.594E-02  1.224E+00
   1    8    7     5     3    9.9265E+00  1.9221E-01   9.7343E+00  0.000E+00  0.000E+00  0.000E+00  1.04992E+03  6.676E-01  1.497E+01  5.241E-02  1.223E+00
   1    8    6     5     4    9.7343E+00  1.3577E-01   9.5985E+00  0.000E+00  0.000E+00  0.000E+00  1.04691E+03  6.637E-01  1.482E+01  3.706E-02  1.221E+00
   1    9    6     6     1    2.1889E+01  2.4742E-01   2.1641E+01  0.000E+00  0.000E+00  0.000E+00  1.04385E+03  1.124E+00  1.200E+01  6.000E-02  1.375E+00
   1   10    7     6     2    2.1641E+01  2.4696E-01   2.1395E+01  0.000E+00  0.000E+00  0.000E+00  1.03930E+03  1.116E+00  1.200E+01  6.000E-02  1.372E+00
   1   11    7     6     3    2.1395E+01  2.4650E-01   2.1148E+01  0.000E+00  0.000E+00  0.000E+00  1.03474E+03  1.108E+00  1.200E+01  6.000E-02  1.369E+00
   1   12    7     6     4    2.1148E+01  2.4603E-01   2.0902E+01  0.000E+00  0.000E+00  0.000E+00  1.03019E+03  1.101E+00  1.200E+01  6.000E-02  1.367E+00
   1   13    7     6     5    2.0902E+01 -9.2554E-03   2.0911E+01  0.000E+00  0.000E+00  0.000E+00  1.02701E+03  1.097E+00  1.200E+01  2.400E-01 -1.285E-02
   1   14    9     7     1    1.5000E+02  1.3382E+00   1.4866E+02  0.000E+00  0.000E+00  0.000E+00  1.03987E+03  2.288E+00  5.529E+01  5.593E-01  7.976E-01
   1   13    8     7     2    1.4866E+02  1.8422E+00   1.4682E+02  0.000E+00  0.000E+00  0.000E+00  1.03478E+03  2.279E+00  5.526E+01  6.148E-01  9.988E-01
   1   13    7     7     3    1.4682E+02  1.4772E+00   1.4534E+02  0.000E+00  0.000E+00  0.000E+00  1.02969E+03  2.270E+00  5.522E+01  5.584E-01  8.818E-01
   1   13    6     8     1    1.6625E+02  9.0519E-01   1.6535E+02  0.000E+00  0.000E+00  0.000E+00  1.02480E+03  2.925E+00  4.241E+01  4.321E-01  6.982E-01
   1   13    5     8     2    1.6535E+02  1.6181E-01   1.6519E+02  0.000E+00  0.000E+00  0.000E+00  1.01855E+03  2.921E+00  4.236E+01  4.316E-01  1.250E-01
   1   13    4     8     3    1.6519E+02 -2.4784E+00   1.6767E+02  0.000E+00  0.000E+00  0.000E+00  1.01230E+03  2.929E+00  4.247E+01  4.328E+00 -1.909E-01
   1   13    3     8     4    1.6767E+02 -3.6595E+00   1.7132E+02  0.000E+00  0.000E+00  0.000E+00  1.00607E+03  2.949E+00  4.276E+01  4.357E+00 -2.800E-01
   1   13    2     8     5    1.7132E+02 -2.5627E+00   1.7389E+02  0.000E+00  0.000E+00  0.000E+00  9.99844E+02  2.969E+00  4.305E+01  4.387E+00 -1.947E-01
   1   13    1     8     6    1.7389E+02 -1.9581E+00   1.7585E+02  0.000E+00  0.000E+00  0.000E+00  9.94859E+02  2.984E+00  4.326E+01  2.645E+00 -2.467E-01
   1    8    6     9     1    0.0000E+00  0.0000E+00   0.0000E+00  0.000E+00  0.000E+00  0.000E+00  1.07875E+03  0.000E+00  4.000E+00  0.000E+00  1.000E+00
   1    8    5     9     2    0.0000E+00  0.0000E+00   0.0000E+00  0.000E+00  0.000E+00  0.000E+00  1.07825E+03  0.000E+00  4.000E+00  0.000E+00  1.000E+00





UNSATURATED ZONE PACKAGE VOLUMETRIC BUDGET FOR  TIME STEP    30 STRESS PERIOD   23
  ------------------------------------------------------------------------------



     CUMULATIVE VOLUMES      L**3       RATES FOR THIS TIME STEP      L**3/T
     ------------------                 ------------------------

           IN:                                      IN:
           ---                                      ---
        INFILTRATION =  1221352847.0759          INFILTRATION =           4.4075

          OUT:                                     OUT:
          ----                                     ----
              UZF ET =   994914867.5033                UZF ET =           3.7800
        UZF RECHARGE =     6216406.1210          UZF RECHARGE =       0.0000E+00

            IN - OUT =   220221573.4517              IN - OUT =           0.6275

          STORAGE:                                 STORAGE:
          --------                                 --------
      STORAGE CHANGE =   220222095.4156        STORAGE CHANGE =           0.6275

 PERCENT DISCREPANCY IS DIFFERENCE BETWEEN IN-OUT MINUS CHANGE IN STORAGE
 DIVIDED BY THE AVERAGE OF IN AND OUT TIMES 100

 PERCENT DISCREPANCY =          -0.00     PERCENT DISCREPANCY =           0.00






1
  VOLUMETRIC BUDGET FOR AGRICULTURAL FIELDS AT  END OF TIME STEP   30, STRESS PERIOD  23
  ------------------------------------------------------------------------------

     CUMULATIVE VOLUMES      L**3       RATES FOR THIS TIME STEP      L**3/T
     ------------------                 ------------------------

           IN:                                      IN:
           ---                                      ---
               AG WELLS  =   368416480.0000                 AG WELLS  =           0.0000
      DIVERSION SEGMENTS =   598044480.0000        DIVERSION SEGMENTS =           0.0000
           GW IRRIGATION =           0.0000             GW IRRIGATION =           0.0000
           SW IRRIGATION =           0.0000             SW IRRIGATION =           0.0000
        SYSTEM LOSSES GW =           0.0000          SYSTEM LOSSES GW =           0.0000
        SYSTEM LOSSES SW =           0.0000          SYSTEM LOSSES SW =           0.0000

                TOTAL IN =   966460928.0000                  TOTAL IN =           0.0000

          OUT:                                     OUT:
          ----                                     ----
               AG WELLS  =           0.0000                 AG WELLS  =           0.0000
      DIVERSION SEGMENTS =           0.0000        DIVERSION SEGMENTS =           0.0000
           GW IRRIGATION =   368416480.0000             GW IRRIGATION =           0.0000
           SW IRRIGATION =   598056384.0000             SW IRRIGATION =           0.0000
        SYSTEM LOSSES GW =           0.0000          SYSTEM LOSSES GW =           0.0000
        SYSTEM LOSSES SW =           0.0000          SYSTEM LOSSES SW =           0.0000

               TOTAL OUT =   966472832.0000                 TOTAL OUT =           0.0000

                IN - OUT =      -11904.0000                  IN - OUT =           0.0000

     PERCENT DISCREPANCY =          -0.00         PERCENT DISCREPANCY =           0.00



1
  VOLUMETRIC BUDGET FOR ENTIRE MODEL AT END OF TIME STEP   30, STRESS PERIOD  23
  ------------------------------------------------------------------------------

     CUMULATIVE VOLUMES      L**3       RATES FOR THIS TIME STEP      L**3/T
     ------------------                 ------------------------

           IN:                                      IN:
           ---                                      ---
             STORAGE     =   566517760.0000               STORAGE     =           7.6120
       CONSTANT HEAD     =           0.0000         CONSTANT HEAD     =           0.0000
     HEAD DEP BOUNDS     =    16559512.0000       HEAD DEP BOUNDS     =           0.2859
      STREAM LEAKAGE     =   692092480.0000        STREAM LEAKAGE     =          11.3229
        UZF RECHARGE     =     6216406.0000          UZF RECHARGE     =           0.0000
               GW ET     =           0.0000                 GW ET     =           0.0000
     SURFACE LEAKAGE     =           0.0000       SURFACE LEAKAGE     =           0.0000
           AG WELLS      =           0.0000             AG WELLS      =           0.0000

                TOTAL IN =  1281386240.0000                  TOTAL IN =          19.2208

          OUT:                                     OUT:
          ----                                     ----
             STORAGE     =   266993728.0000               STORAGE     =           8.2641
       CONSTANT HEAD     =           0.0000         CONSTANT HEAD     =           0.0000
     HEAD DEP BOUNDS     =    16848300.0000       HEAD DEP BOUNDS     =           0.2888
      STREAM LEAKAGE     =   627105536.0000        STREAM LEAKAGE     =          10.6680
        UZF RECHARGE     =           0.0000          UZF RECHARGE     =           0.0000
               GW ET     =     2023766.7500                 GW ET     =           0.0000
     SURFACE LEAKAGE     =           0.0000       SURFACE LEAKAGE     =           0.0000
           AG WELLS      =   368416480.0000             AG WELLS      =           0.0000

               TOTAL OUT =  1281387776.0000                 TOTAL OUT =          19.2208

                IN - OUT =       -1536.0000                  IN - OUT =       7.6294E-06

     PERCENT DISCREPANCY =          -0.00         PERCENT DISCREPANCY =           0.00






         TIME SUMMARY AT END OF TIME STEP   30 IN STRESS PERIOD   23
                    SECONDS     MINUTES      HOURS       DAYS        YEARS
                    -----------------------------------------------------------
   TIME STEP LENGTH  87667.      1461.1      24.352      1.0147     2.77799E-03
 STRESS PERIOD TIME 2.63000E+06  43833.      730.56      30.440     8.33397E-02
         TOTAL TIME 5.79467E+07 9.65778E+05  16096.      670.68      1.8362    
1
1
                            STRESS PERIOD NO.   24, LENGTH =   2630000.    
                            -----------------------------------------------

                              NUMBER OF TIME STEPS =    30

                               MULTIPLIER FOR DELT =     1.000

                            INITIAL TIME STEP SIZE =   87666.66    

 REUSING NON-PARAMETER GHB CELLS FROM LAST STRESS PERIOD

      2 GHB CELLS

 REUSING STREAM SEGMENT DATA FROM LAST STRESS PERIOD



            AREAL INFILTRATION RATE
 READING ON UNIT   19 WITH FORMAT: (10F4.0)            

            1           2           3           4           5           6           7           8           9          10
 ........................................................................................................................
   1   1.2000E-09   0.000       0.000       0.000       0.000       0.000       0.000       0.000       0.000       0.000    
   2   2.1000E-09  2.0000E-09  8.0000E-10  8.5000E-09   0.000       0.000       0.000       0.000       0.000       0.000    
   3   5.0000E-10  1.1000E-09  8.8000E-09  5.5000E-09   0.000       0.000       0.000       0.000       0.000       0.000    
   4   8.5000E-09  1.1000E-09  1.1000E-09  1.1000E-09  2.0000E-09   0.000       0.000       0.000       0.000       0.000    
   5   8.5000E-09  1.1000E-09  1.1000E-09  1.1000E-09  1.1000E-09   0.000       0.000       0.000       0.000       0.000    
   6   8.5000E-09  5.2000E-09  2.1000E-09  1.1000E-09  1.5000E-09   0.000       0.000       0.000       0.000       0.000    
   7   8.5000E-09  5.2000E-09  2.1000E-09  1.2000E-09  2.0000E-09   0.000       0.000       0.000       0.000       0.000    
   8   5.0000E-10  5.2000E-09  2.1000E-09  1.2000E-09  5.0000E-09   0.000       0.000       0.000       0.000       0.000    
   9   5.0000E-10  5.2000E-09  2.1000E-09  1.2000E-09  5.0000E-09   0.000       0.000       0.000       0.000       0.000    
  10   5.0000E-10  5.2000E-09  2.1000E-09  1.2000E-09  5.8000E-09   0.000       0.000       0.000       0.000       0.000    
  11   1.0000E-10  1.1000E-09  1.1000E-09  1.2000E-09  5.0000E-09   0.000       0.000       0.000       0.000       0.000    
  12   1.1000E-09  1.1000E-09  1.1000E-09  1.1000E-09  2.0000E-09   0.000       0.000       0.000       0.000       0.000    
  13   1.1000E-09  2.2000E-09  2.2000E-09  2.1000E-09  1.0000E-09   0.000       0.000       0.000       0.000       0.000    
  14   2.0000E-10  5.5000E-09  5.5000E-09  5.2000E-09  1.0000E-09   0.000       0.000       0.000       0.000       0.000    
  15    0.000      8.8000E-09  8.8000E-09   0.000       0.000       0.000       0.000       0.000       0.000       0.000    

                  ET RATE =  5.000000E-10

 USING ET EXTINCTION DEPTH FROM PREVIOUS STRESS PERIOD. CURRENT PERIOD IS:      24

 USING EXTINCTION WATER CONTENT FROM PREVIOUS STRESS PERIOD. CURRENT PERIOD IS:      24

 USING AIR ENTRY PRESSURE FROM PREVIOUS STRESS PERIOD. CURRENT PERIOD IS:      24

 USING ROOT PRESSURE HEAD FROM PREVIOUS STRESS PERIOD. CURRENT PERIOD IS:      24

 USING ROOT ACTIVITY FROM PREVIOUS STRESS PERIOD. CURRENT PERIOD IS:      24

 PROCESSING AG STRESS PERIOD DATA

 READING AG STRESS PERIOD DATA

 READING IRRIGATION SEGMENT

 READING IRRIGATION WELL

 READING SUPPLEMENTAL WELL

 END PROCESSING AG STRESS PERIOD DATA OPTIONS
 
 SOLVING FOR HEAD 
                                                   Max.-Head-Change                         Max.-Flux-Residual
  Residual-Control   Outer-Iter.   Inner-Iter.     Column Row Layer    Maximum-Head-Change  Column Row Layer    Maximum-Flux-Residual          L2-NORM 
          0                 1           2             4    7     1       0.3060048190E-01       4    7    1         0.1613975413E+01      0.3164868913E+01
          0                 2           2             4    7     1      -0.2976612559E-02       4    7    1        -0.1613988916E+00      0.3164882681E+00
          0                 3           2             4    7     1       0.2026960834E-03       4    7    1         0.1129791452E-01      0.2215417252E-01
          0                 4           1             4    7     1      -0.8065467474E-05       4    7    1        -0.4620853888E-03      0.9061095568E-03

    ------------------------------------------------
       NWT REQUIRED            4 OUTER ITERATIONS 
       AND A TOTAL OF          7 INNER ITERATIONS.
    ------------------------------------------------

 NO OUTPUT CONTROL FOR STRESS PERIOD   24   TIME STEP    1
 
 SOLVING FOR HEAD 
                                                   Max.-Head-Change                         Max.-Flux-Residual
  Residual-Control   Outer-Iter.   Inner-Iter.     Column Row Layer    Maximum-Head-Change  Column Row Layer    Maximum-Flux-Residual          L2-NORM 
          0                 1           2             4    7     1       0.3013667078E-01       4    7    1         0.1589964114E+01      0.3095476043E+01
          0                 2           2             4    7     1      -0.2931496259E-02       4    7    1        -0.1589977552E+00      0.3095487970E+00
          0                 3           2             4    7     1       0.1996238324E-03       4    7    1         0.1112983496E-01      0.2166839960E-01
          0                 4           1             4    7     1      -0.7943220153E-05       4    7    1        -0.4552109585E-03      0.8862382594E-03

    ------------------------------------------------
       NWT REQUIRED            4 OUTER ITERATIONS 
       AND A TOTAL OF          7 INNER ITERATIONS.
    ------------------------------------------------

 NO OUTPUT CONTROL FOR STRESS PERIOD   24   TIME STEP    2
 
 SOLVING FOR HEAD 
                                                   Max.-Head-Change                         Max.-Flux-Residual
  Residual-Control   Outer-Iter.   Inner-Iter.     Column Row Layer    Maximum-Head-Change  Column Row Layer    Maximum-Flux-Residual          L2-NORM 
          0                 1           2             4    7     1       0.2967252229E-01       4    7    1         0.1565857254E+01      0.3030210402E+01
          0                 2           2             4    7     1      -0.2886347066E-02       4    7    1        -0.1565870573E+00      0.3030221686E+00
          0                 3           2             4    7     1       0.1965493414E-03       4    7    1         0.1096108615E-01      0.2121153826E-01
          0                 4           1             4    7     1      -0.7820882917E-05       4    7    1        -0.4483090988E-03      0.8675554326E-03

    ------------------------------------------------
       NWT REQUIRED            4 OUTER ITERATIONS 
       AND A TOTAL OF          7 INNER ITERATIONS.
    ------------------------------------------------

 NO OUTPUT CONTROL FOR STRESS PERIOD   24   TIME STEP    3
 
 SOLVING FOR HEAD 
                                                   Max.-Head-Change                         Max.-Flux-Residual
  Residual-Control   Outer-Iter.   Inner-Iter.     Column Row Layer    Maximum-Head-Change  Column Row Layer    Maximum-Flux-Residual          L2-NORM 
          0                 1           2             4    7     1       0.2920961411E-01       4    7    1         0.1541747596E+01      0.2969201602E+01
          0                 2           2             4    7     1      -0.2841318461E-02       4    7    1        -0.1541760752E+00      0.2969212283E+00
          0                 3           2             4    7     1       0.1934830629E-03       4    7    1         0.1079231747E-01      0.2078447257E-01
          0                 4           1             4    7     1      -0.7698873219E-05       4    7    1        -0.4414064633E-03      0.8500858790E-03

    ------------------------------------------------
       NWT REQUIRED            4 OUTER ITERATIONS 
       AND A TOTAL OF          7 INNER ITERATIONS.
    ------------------------------------------------

 NO OUTPUT CONTROL FOR STRESS PERIOD   24   TIME STEP    4
 
 SOLVING FOR HEAD 
                                                   Max.-Head-Change                         Max.-Flux-Residual
  Residual-Control   Outer-Iter.   Inner-Iter.     Column Row Layer    Maximum-Head-Change  Column Row Layer    Maximum-Flux-Residual          L2-NORM 
          0                 1           2             4    7     1       0.2874892833E-01       4    7    1         0.1517694890E+01      0.2911959137E+01
          0                 2           2             4    7     1      -0.2796505986E-02       4    7    1        -0.1517707849E+00      0.2911969212E+00
          0                 3           2             4    7     1       0.1904315025E-03       4    7    1         0.1062394727E-01      0.2038376702E-01
          0                 4           1             4    7     1      -0.7577448369E-05       4    7    1        -0.4345201010E-03      0.8336935662E-03

    ------------------------------------------------
       NWT REQUIRED            4 OUTER ITERATIONS 
       AND A TOTAL OF          7 INNER ITERATIONS.
    ------------------------------------------------

 NO OUTPUT CONTROL FOR STRESS PERIOD   24   TIME STEP    5
 
 SOLVING FOR HEAD 
                                                   Max.-Head-Change                         Max.-Flux-Residual
  Residual-Control   Outer-Iter.   Inner-Iter.     Column Row Layer    Maximum-Head-Change  Column Row Layer    Maximum-Flux-Residual          L2-NORM 
          0                 1           2             4    7     1       0.2829156649E-01       4    7    1         0.1493764759E+01      0.2858074576E+01
          0                 2           2             4    7     1      -0.2752016801E-02       4    7    1        -0.1493777491E+00      0.2858083954E+00
          0                 3           2             4    7     1       0.1874019574E-03       4    7    1         0.1045643490E-01      0.2000657473E-01
          0                 4           1             4    7     1      -0.7456900216E-05       4    7    1        -0.4276688428E-03      0.8182757850E-03

    ------------------------------------------------
       NWT REQUIRED            4 OUTER ITERATIONS 
       AND A TOTAL OF          7 INNER ITERATIONS.
    ------------------------------------------------

 NO OUTPUT CONTROL FOR STRESS PERIOD   24   TIME STEP    6
 
 SOLVING FOR HEAD 
                                                   Max.-Head-Change                         Max.-Flux-Residual
  Residual-Control   Outer-Iter.   Inner-Iter.     Column Row Layer    Maximum-Head-Change  Column Row Layer    Maximum-Flux-Residual          L2-NORM 
          0                 1           2             4    7     1       0.2783808366E-01       4    7    1         0.1469992260E+01      0.2807188815E+01
          0                 2           2             4    7     1      -0.2707904906E-02       4    7    1        -0.1470004744E+00      0.2807197622E+00
          0                 3           2             4    7     1       0.1843981048E-03       4    7    1         0.1029002585E-01      0.1965037029E-01
          0                 4           1             4    7     1      -0.7337373935E-05       4    7    1        -0.4208627001E-03      0.8037018016E-03

    ------------------------------------------------
       NWT REQUIRED            4 OUTER ITERATIONS 
       AND A TOTAL OF          7 INNER ITERATIONS.
    ------------------------------------------------

 NO OUTPUT CONTROL FOR STRESS PERIOD   24   TIME STEP    7
 
 SOLVING FOR HEAD 
                                                   Max.-Head-Change                         Max.-Flux-Residual
  Residual-Control   Outer-Iter.   Inner-Iter.     Column Row Layer    Maximum-Head-Change  Column Row Layer    Maximum-Flux-Residual          L2-NORM 
          0                 1           2             4    7     1       0.2738945932E-01       4    7    1         0.1446435583E+01      0.2758988071E+01
          0                 2           2             4    7     1      -0.2664265585E-02       4    7    1        -0.1446447799E+00      0.2758996319E+00
          0                 3           2             4    7     1       0.1814264328E-03       4    7    1         0.1012512741E-01      0.1931296124E-01
          0                 4           1             4    7     1      -0.7219128679E-05       4    7    1        -0.4141183458E-03      0.7898998476E-03

    ------------------------------------------------
       NWT REQUIRED            4 OUTER ITERATIONS 
       AND A TOTAL OF          7 INNER ITERATIONS.
    ------------------------------------------------

 NO OUTPUT CONTROL FOR STRESS PERIOD   24   TIME STEP    8
 
 SOLVING FOR HEAD 
                                                   Max.-Head-Change                         Max.-Flux-Residual
  Residual-Control   Outer-Iter.   Inner-Iter.     Column Row Layer    Maximum-Head-Change  Column Row Layer    Maximum-Flux-Residual          L2-NORM 
          0                 1           2             4    7     1       0.2694614751E-01       4    7    1         0.1423123454E+01      0.2713186672E+01
          0                 2           2             4    7     1      -0.2621143011E-02       4    7    1        -0.1423135391E+00      0.2713194364E+00
          0                 3           2             4    7     1       0.1784899494E-03       4    7    1         0.9961940747E-02      0.1899234858E-01
          0                 4           1             4    7     1      -0.7102282914E-05       4    7    1        -0.4074439935E-03      0.7767931379E-03

    ------------------------------------------------
       NWT REQUIRED            4 OUTER ITERATIONS 
       AND A TOTAL OF          7 INNER ITERATIONS.
    ------------------------------------------------

 NO OUTPUT CONTROL FOR STRESS PERIOD   24   TIME STEP    9
 
 SOLVING FOR HEAD 
                                                   Max.-Head-Change                         Max.-Flux-Residual
  Residual-Control   Outer-Iter.   Inner-Iter.     Column Row Layer    Maximum-Head-Change  Column Row Layer    Maximum-Flux-Residual          L2-NORM 
          0                 1           2             4    7     1       0.2650864746E-01       4    7    1         0.1400086768E+01      0.2669559440E+01
          0                 2           2             4    7     1      -0.2578585750E-02       4    7    1        -0.1400098415E+00      0.2669566650E+00
          0                 3           2             4    7     1       0.1755919621E-03       4    7    1         0.9800682130E-02      0.1868695263E-01
          0                 4           1             4    7     1      -0.6986969153E-05       4    7    1        -0.4008485043E-03      0.7642970891E-03

    ------------------------------------------------
       NWT REQUIRED            4 OUTER ITERATIONS 
       AND A TOTAL OF          7 INNER ITERATIONS.
    ------------------------------------------------

 NO OUTPUT CONTROL FOR STRESS PERIOD   24   TIME STEP   10
 
 SOLVING FOR HEAD 
                                                   Max.-Head-Change                         Max.-Flux-Residual
  Residual-Control   Outer-Iter.   Inner-Iter.     Column Row Layer    Maximum-Head-Change  Column Row Layer    Maximum-Flux-Residual          L2-NORM 
          0                 1           2             4    7     1       0.2607750656E-01       4    7    1         0.1377358764E+01      0.2627897507E+01
          0                 2           2             4    7     1      -0.2536647054E-02       4    7    1        -0.1377370115E+00      0.2627904153E+00
          0                 3           2             4    7     1       0.1727360966E-03       4    7    1         0.9641584234E-02      0.1839530765E-01
          0                 4           1             4    7     1      -0.6873331534E-05       4    7    1        -0.3943413940E-03      0.7523626962E-03

    ------------------------------------------------
       NWT REQUIRED            4 OUTER ITERATIONS 
       AND A TOTAL OF          7 INNER ITERATIONS.
    ------------------------------------------------

 NO OUTPUT CONTROL FOR STRESS PERIOD   24   TIME STEP   11
 
 SOLVING FOR HEAD 
                                                   Max.-Head-Change                         Max.-Flux-Residual
  Residual-Control   Outer-Iter.   Inner-Iter.     Column Row Layer    Maximum-Head-Change  Column Row Layer    Maximum-Flux-Residual          L2-NORM 
          0                 1           2             4    7     1       0.2565291784E-01       4    7    1         0.1354953116E+01      0.2588005282E+01
          0                 2           2             4    7     1      -0.2495345700E-02       4    7    1        -0.1354964167E+00      0.2588011499E+00
          0                 3           2             4    7     1       0.1699236317E-03       4    7    1         0.9484742794E-02      0.1811606512E-01
          0                 4           1             4    7     1      -0.6761421405E-05       4    7    1        -0.3879265751E-03      0.7409526181E-03

    ------------------------------------------------
       NWT REQUIRED            4 OUTER ITERATIONS 
       AND A TOTAL OF          7 INNER ITERATIONS.
    ------------------------------------------------

 NO OUTPUT CONTROL FOR STRESS PERIOD   24   TIME STEP   12
 
 SOLVING FOR HEAD 
                                                   Max.-Head-Change                         Max.-Flux-Residual
  Residual-Control   Outer-Iter.   Inner-Iter.     Column Row Layer    Maximum-Head-Change  Column Row Layer    Maximum-Flux-Residual          L2-NORM 
          0                 1           2             4    7     1       0.2523528600E-01       4    7    1         0.1332894539E+01      0.2549726863E+01
          0                 2           2             4    7     1      -0.2454721060E-02       4    7    1        -0.1332905289E+00      0.2549732603E+00
          0                 3           2             4    7     1       0.1671572488E-03       4    7    1         0.9330330882E-02      0.1784811274E-01
          0                 4           1             4    7     1      -0.6651344107E-05       4    7    1        -0.3816111107E-03      0.7299909557E-03

    ------------------------------------------------
       NWT REQUIRED            4 OUTER ITERATIONS 
       AND A TOTAL OF          7 INNER ITERATIONS.
    ------------------------------------------------

 NO OUTPUT CONTROL FOR STRESS PERIOD   24   TIME STEP   13
 
 SOLVING FOR HEAD 
                                                   Max.-Head-Change                         Max.-Flux-Residual
  Residual-Control   Outer-Iter.   Inner-Iter.     Column Row Layer    Maximum-Head-Change  Column Row Layer    Maximum-Flux-Residual          L2-NORM 
          0                 1           2             4    7     1       0.2482481648E-01       4    7    1         0.1311196666E+01      0.2512928299E+01
          0                 2           2             4    7     1      -0.2414793119E-02       4    7    1        -0.1311207113E+00      0.2512933645E+00
          0                 3           2             4    7     1       0.1644383085E-03       4    7    1         0.9178443861E-02      0.1759052655E-01
          0                 4           1             4    7     1      -0.6543155247E-05       4    7    1        -0.3753989349E-03      0.7194573126E-03

    ------------------------------------------------
       NWT REQUIRED            4 OUTER ITERATIONS 
       AND A TOTAL OF          7 INNER ITERATIONS.
    ------------------------------------------------

 NO OUTPUT CONTROL FOR STRESS PERIOD   24   TIME STEP   14
 
 SOLVING FOR HEAD 
                                                   Max.-Head-Change                         Max.-Flux-Residual
  Residual-Control   Outer-Iter.   Inner-Iter.     Column Row Layer    Maximum-Head-Change  Column Row Layer    Maximum-Flux-Residual          L2-NORM 
          0                 1           2             4    7     1       0.2442165579E-01       4    7    1         0.1289870146E+01      0.2477473331E+01
          0                 2           2             4    7     1      -0.2375576132E-02       4    7    1        -0.1289880294E+00      0.2477478223E+00
          0                 3           2             4    7     1       0.1617677814E-03       4    7    1         0.9029156346E-02      0.1734232502E-01
          0                 4           1             4    7     1      -0.6436892126E-05       4    7    1        -0.3692930604E-03      0.7092966760E-03

    ------------------------------------------------
       NWT REQUIRED            4 OUTER ITERATIONS 
       AND A TOTAL OF          7 INNER ITERATIONS.
    ------------------------------------------------

 NO OUTPUT CONTROL FOR STRESS PERIOD   24   TIME STEP   15
 
 SOLVING FOR HEAD 
                                                   Max.-Head-Change                         Max.-Flux-Residual
  Residual-Control   Outer-Iter.   Inner-Iter.     Column Row Layer    Maximum-Head-Change  Column Row Layer    Maximum-Flux-Residual          L2-NORM 
          0                 1           2             4    7     1       0.2402591297E-01       4    7    1         0.1268922577E+01      0.2443261970E+01
          0                 2           2             4    7     1      -0.2337080705E-02       4    7    1        -0.1268932427E+00      0.2443266525E+00
          0                 3           2             4    7     1       0.1591463901E-03       4    7    1         0.8882521513E-02      0.1710283334E-01
          0                 4           1             4    7     1      -0.6332584678E-05       4    7    1        -0.3632956864E-03      0.6995003632E-03

    ------------------------------------------------
       NWT REQUIRED            4 OUTER ITERATIONS 
       AND A TOTAL OF          7 INNER ITERATIONS.
    ------------------------------------------------

 NO OUTPUT CONTROL FOR STRESS PERIOD   24   TIME STEP   16
 
 SOLVING FOR HEAD 
                                                   Max.-Head-Change                         Max.-Flux-Residual
  Residual-Control   Outer-Iter.   Inner-Iter.     Column Row Layer    Maximum-Head-Change  Column Row Layer    Maximum-Flux-Residual          L2-NORM 
          0                 1           2             4    7     1       0.2363752219E-01       4    7    1         0.1248352255E+01      0.2410186901E+01
          0                 2           2             4    7     1      -0.2299300438E-02       4    7    1        -0.1248361812E+00      0.2410191091E+00
          0                 3           2             4    7     1       0.1565736979E-03       4    7    1         0.8738527416E-02      0.1687131705E-01
          0                 4           1             4    7     1      -0.6230214597E-05       4    7    1        -0.3574063071E-03      0.6900381252E-03

    ------------------------------------------------
       NWT REQUIRED            4 OUTER ITERATIONS 
       AND A TOTAL OF          7 INNER ITERATIONS.
    ------------------------------------------------

 NO OUTPUT CONTROL FOR STRESS PERIOD   24   TIME STEP   17
 
 SOLVING FOR HEAD 
                                                   Max.-Head-Change                         Max.-Flux-Residual
  Residual-Control   Outer-Iter.   Inner-Iter.     Column Row Layer    Maximum-Head-Change  Column Row Layer    Maximum-Flux-Residual          L2-NORM 
          0                 1           2             4    7     1       0.2325692593E-01       4    7    1         0.1228185194E+01      0.2378177036E+01
          0                 2           2             4    7     1      -0.2262278372E-02       4    7    1        -0.1228194462E+00      0.2378180865E+00
          0                 3           2             4    7     1       0.1540526364E-03       4    7    1         0.8597356171E-02      0.1664728258E-01
          0                 4           1             4    7     1      -0.6129898969E-05       4    7    1        -0.3516323864E-03      0.6810189647E-03

    ------------------------------------------------
       NWT REQUIRED            4 OUTER ITERATIONS 
       AND A TOTAL OF          7 INNER ITERATIONS.
    ------------------------------------------------

 NO OUTPUT CONTROL FOR STRESS PERIOD   24   TIME STEP   18
 
 SOLVING FOR HEAD 
                                                   Max.-Head-Change                         Max.-Flux-Residual
  Residual-Control   Outer-Iter.   Inner-Iter.     Column Row Layer    Maximum-Head-Change  Column Row Layer    Maximum-Flux-Residual          L2-NORM 
          0                 1           2             4    7     1       0.2288370343E-01       4    7    1         0.1208400196E+01      0.2347140856E+01
          0                 2           2             4    7     1      -0.2225973582E-02       4    7    1        -0.1208409181E+00      0.2347144363E+00
          0                 3           2             4    7     1       0.1515804196E-03       4    7    1         0.8458859431E-02      0.1643006858E-01
          0                 4           1             4    7     1      -0.6031527385E-05       4    7    1        -0.3459678824E-03      0.6725687119E-03

    ------------------------------------------------
       NWT REQUIRED            4 OUTER ITERATIONS 
       AND A TOTAL OF          7 INNER ITERATIONS.
    ------------------------------------------------

 NO OUTPUT CONTROL FOR STRESS PERIOD   24   TIME STEP   19
 
 SOLVING FOR HEAD 
                                                   Max.-Head-Change                         Max.-Flux-Residual
  Residual-Control   Outer-Iter.   Inner-Iter.     Column Row Layer    Maximum-Head-Change  Column Row Layer    Maximum-Flux-Residual          L2-NORM 
          0                 1           2             4    7     1       0.2251811294E-01       4    7    1         0.1189012231E+01      0.2317021890E+01
          0                 2           2             4    7     1      -0.2190411186E-02       4    7    1        -0.1189020938E+00      0.2317024966E+00
          0                 3           2             4    7     1       0.1491587562E-03       4    7    1         0.8323141932E-02      0.1621914023E-01
          0                 4           1             4    7     1      -0.5935166965E-05       4    7    1        -0.3404170207E-03      0.6633703558E-03

    ------------------------------------------------
       NWT REQUIRED            4 OUTER ITERATIONS 
       AND A TOTAL OF          7 INNER ITERATIONS.
    ------------------------------------------------

 NO OUTPUT CONTROL FOR STRESS PERIOD   24   TIME STEP   20
 
 SOLVING FOR HEAD 
                                                   Max.-Head-Change                         Max.-Flux-Residual
  Residual-Control   Outer-Iter.   Inner-Iter.     Column Row Layer    Maximum-Head-Change  Column Row Layer    Maximum-Flux-Residual          L2-NORM 
          0                 1           2             4    7     1       0.2215996242E-01       4    7    1         0.1170012616E+01      0.2287755120E+01
          0                 2           2             4    7     1      -0.2155572506E-02       4    7    1        -0.1170021052E+00      0.2287757988E+00
          0                 3           2             4    7     1       0.1467863750E-03       4    7    1         0.8190142934E-02      0.1601428212E-01
          0                 4           1             4    7     1      -0.5840767628E-05       4    7    1        -0.3349773456E-03      0.6549825932E-03

    ------------------------------------------------
       NWT REQUIRED            4 OUTER ITERATIONS 
       AND A TOTAL OF          7 INNER ITERATIONS.
    ------------------------------------------------

 NO OUTPUT CONTROL FOR STRESS PERIOD   24   TIME STEP   21
 
 SOLVING FOR HEAD 
                                                   Max.-Head-Change                         Max.-Flux-Residual
  Residual-Control   Outer-Iter.   Inner-Iter.     Column Row Layer    Maximum-Head-Change  Column Row Layer    Maximum-Flux-Residual          L2-NORM 
          0                 1           2             4    7     1       0.2180932505E-01       4    7    1         0.1151406109E+01      0.2259288551E+01
          0                 2           2             4    7     1      -0.2121464662E-02       4    7    1        -0.1151414281E+00      0.2259291060E+00
          0                 3           2             4    7     1       0.1444637609E-03       4    7    1         0.8059895720E-02      0.1581501525E-01
          0                 4           1             4    7     1      -0.5748348717E-05       4    7    1        -0.3296502250E-03      0.6468354705E-03

    ------------------------------------------------
       NWT REQUIRED            4 OUTER ITERATIONS 
       AND A TOTAL OF          7 INNER ITERATIONS.
    ------------------------------------------------

 NO OUTPUT CONTROL FOR STRESS PERIOD   24   TIME STEP   22
 
 SOLVING FOR HEAD 
                                                   Max.-Head-Change                         Max.-Flux-Residual
  Residual-Control   Outer-Iter.   Inner-Iter.     Column Row Layer    Maximum-Head-Change  Column Row Layer    Maximum-Flux-Residual          L2-NORM 
          0                 1           2             4    7     1       0.2146611155E-01       4    7    1         0.1133189148E+01      0.2231573772E+01
          0                 2           2             4    7     1      -0.2088079540E-02       4    7    1        -0.1133197063E+00      0.2231956853E+00
          0                 3           2             4    7     1       0.1421903617E-03       4    7    1         0.7932375379E-02      0.1562368213E-01
          0                 4           1             4    7     1      -0.5657888241E-05       4    7    1        -0.3244346431E-03      0.6390113004E-03

    ------------------------------------------------
       NWT REQUIRED            4 OUTER ITERATIONS 
       AND A TOTAL OF          7 INNER ITERATIONS.
    ------------------------------------------------

 NO OUTPUT CONTROL FOR STRESS PERIOD   24   TIME STEP   23
 
 SOLVING FOR HEAD 
                                                   Max.-Head-Change                         Max.-Flux-Residual
  Residual-Control   Outer-Iter.   Inner-Iter.     Column Row Layer    Maximum-Head-Change  Column Row Layer    Maximum-Flux-Residual          L2-NORM 
          0                 1           2             4    7     1       0.2113021601E-01       4    7    1         0.1115357073E+01      0.2204532006E+01
          0                 2           2             4    7     1      -0.2055405123E-02       4    7    1        -0.1115364739E+00      0.2204534376E+00
          0                 3           2             4    7     1       0.1399653584E-03       4    7    1         0.7807549286E-02      0.1543174011E-01
          0                 4           1             4    7     1      -0.5569353044E-05       4    7    1        -0.3193292396E-03      0.6321829028E-03

    ------------------------------------------------
       NWT REQUIRED            4 OUTER ITERATIONS 
       AND A TOTAL OF          7 INNER ITERATIONS.
    ------------------------------------------------

 NO OUTPUT CONTROL FOR STRESS PERIOD   24   TIME STEP   24
 
 SOLVING FOR HEAD 
                                                   Max.-Head-Change                         Max.-Flux-Residual
  Residual-Control   Outer-Iter.   Inner-Iter.     Column Row Layer    Maximum-Head-Change  Column Row Layer    Maximum-Flux-Residual          L2-NORM 
          0                 1           2             4    7     1       0.2080153055E-01       4    7    1         0.1097904485E+01      0.2178149159E+01
          0                 2           2             4    7     1      -0.2023432632E-02       4    7    1        -0.1097911908E+00      0.2178150903E+00
          0                 3           2             4    7     1       0.1377881535E-03       4    7    1         0.7685379630E-02      0.1524702823E-01
          0                 4           1             4    7     1      -0.5482720100E-05       4    7    1        -0.3143324921E-03      0.6236042711E-03

    ------------------------------------------------
       NWT REQUIRED            4 OUTER ITERATIONS 
       AND A TOTAL OF          7 INNER ITERATIONS.
    ------------------------------------------------

 NO OUTPUT CONTROL FOR STRESS PERIOD   24   TIME STEP   25
 
 SOLVING FOR HEAD 
                                                   Max.-Head-Change                         Max.-Flux-Residual
  Residual-Control   Outer-Iter.   Inner-Iter.     Column Row Layer    Maximum-Head-Change  Column Row Layer    Maximum-Flux-Residual          L2-NORM 
          0                 1           2             4    7     1       0.2047979137E-01       4    7    1         0.1080818339E+01      0.2152389967E+01
          0                 2           2             4    7     1      -0.1992135836E-02       4    7    1        -0.1080825526E+00      0.2152391447E+00
          0                 3           1             4    7     1       0.1356569634E-03       4    7    1         0.7565775143E-02      0.1506671654E-01
          0                 4           1             4    7     1      -0.5397919873E-05       4    7    1        -0.3094406625E-03      0.6162299877E-03

    ------------------------------------------------
       NWT REQUIRED            4 OUTER ITERATIONS 
       AND A TOTAL OF          6 INNER ITERATIONS.
    ------------------------------------------------

 NO OUTPUT CONTROL FOR STRESS PERIOD   24   TIME STEP   26
 
 SOLVING FOR HEAD 
                                                   Max.-Head-Change                         Max.-Flux-Residual
  Residual-Control   Outer-Iter.   Inner-Iter.     Column Row Layer    Maximum-Head-Change  Column Row Layer    Maximum-Flux-Residual          L2-NORM 
          0                 1           2             4    7     1       0.2016515226E-01       4    7    1         0.1064107066E+01      0.2127245061E+01
          0                 2           2             4    7     1      -0.1961529695E-02       4    7    1        -0.1064114025E+00      0.2127246362E+00
          0                 3           1             4    7     1       0.1335728022E-03       4    7    1         0.7448794815E-02      0.1489070106E-01
          0                 4           1             4    7     1      -0.5314989318E-05       4    7    1        -0.3046561624E-03      0.6090312394E-03

    ------------------------------------------------
       NWT REQUIRED            4 OUTER ITERATIONS 
       AND A TOTAL OF          6 INNER ITERATIONS.
    ------------------------------------------------

 NO OUTPUT CONTROL FOR STRESS PERIOD   24   TIME STEP   27
 
 SOLVING FOR HEAD 
                                                   Max.-Head-Change                         Max.-Flux-Residual
  Residual-Control   Outer-Iter.   Inner-Iter.     Column Row Layer    Maximum-Head-Change  Column Row Layer    Maximum-Flux-Residual          L2-NORM 
          0                 1           2             4    7     1       0.1985746729E-01       4    7    1         0.1047763922E+01      0.2102673504E+01
          0                 2           2             4    7     1      -0.1931600012E-02       4    7    1        -0.1047770660E+00      0.2102674480E+00
          0                 3           1             4    7     1       0.1315347051E-03       4    7    1         0.7334391433E-02      0.1471869809E-01
          0                 4           1             4    7     1      -0.5233891249E-05       4    7    1        -0.2999770600E-03      0.6019988310E-03

    ------------------------------------------------
       NWT REQUIRED            4 OUTER ITERATIONS 
       AND A TOTAL OF          6 INNER ITERATIONS.
    ------------------------------------------------

 NO OUTPUT CONTROL FOR STRESS PERIOD   24   TIME STEP   28
 
 SOLVING FOR HEAD 
                                                   Max.-Head-Change                         Max.-Flux-Residual
  Residual-Control   Outer-Iter.   Inner-Iter.     Column Row Layer    Maximum-Head-Change  Column Row Layer    Maximum-Flux-Residual          L2-NORM 
          0                 1           2             4    7     1       0.1955645021E-01       4    7    1         0.1031773981E+01      0.2078641658E+01
          0                 2           2             4    7     1      -0.1902318942E-02       4    7    1        -0.1031780504E+00      0.2078642457E+00
          0                 3           1             4    7     1       0.1295407755E-03       4    7    1         0.7222460471E-02      0.1455047145E-01
          0                 4           1             4    7     1      -0.5154551063E-05       4    7    1        -0.2953990806E-03      0.5951147996E-03

    ------------------------------------------------
       NWT REQUIRED            4 OUTER ITERATIONS 
       AND A TOTAL OF          6 INNER ITERATIONS.
    ------------------------------------------------

 NO OUTPUT CONTROL FOR STRESS PERIOD   24   TIME STEP   29
 
 SOLVING FOR HEAD 
                                                   Max.-Head-Change                         Max.-Flux-Residual
  Residual-Control   Outer-Iter.   Inner-Iter.     Column Row Layer    Maximum-Head-Change  Column Row Layer    Maximum-Flux-Residual          L2-NORM 
          0                 1           2             4    7     1       0.1926196315E-01       4    7    1         0.1016129759E+01      0.2055133125E+01
          0                 2           2             4    7     1      -0.1873673077E-02       4    7    1        -0.1016136076E+00      0.2055133697E+00
          0                 3           1             4    7     1       0.1275901012E-03       4    7    1         0.7112949618E-02      0.1438590394E-01
          0                 4           1             4    7     1      -0.5076931920E-05       4    7    1        -0.2909200762E-03      0.5883828561E-03

    ------------------------------------------------
       NWT REQUIRED            4 OUTER ITERATIONS 
       AND A TOTAL OF          6 INNER ITERATIONS.
    ------------------------------------------------

 NO OUTPUT CONTROL FOR STRESS PERIOD   24   TIME STEP   30



 STREAM LISTING     PERIOD     24   STEP       30

 LAYER ROW COL. STREAM  RCH.  FLOW INTO     FLOW TO   FLOW OUT OF   OVRLND.     DIRECT     STREAM       STREAM     STREAM     STREAM   STREAMBED  STREAMBED
                SEG.NO.  NO.  STRM. RCH.    AQUIFER    STRM. RCH.    RUNOFF     PRECIP       ET          HEAD       DEPTH      WIDTH   CONDCTNC.   GRADIENT

   1    1    1     1     1    1.5750E+01  1.9239E-01   1.5558E+01  0.000E+00  0.000E+00  0.000E+00  1.09407E+03  1.025E+00  1.062E+01  4.780E-02  1.342E+00
   1    2    2     1     2    1.5558E+01  2.9660E-01   1.5261E+01  0.000E+00  0.000E+00  0.000E+00  1.08908E+03  1.020E+00  1.054E+01  7.378E-02  1.340E+00
   1    3    3     1     3    1.5261E+01  2.5164E-01   1.5010E+01  0.000E+00  0.000E+00  0.000E+00  1.08343E+03  1.015E+00  1.045E+01  6.268E-02  1.338E+00
   1    3    4     1     4    1.5010E+01  2.3064E-01   1.4779E+01  0.000E+00  0.000E+00  0.000E+00  1.07842E+03  1.010E+00  1.036E+01  5.752E-02  1.337E+00
   1    4    5     2     1    1.2779E+01  2.9653E-01   1.2482E+01  0.000E+00  0.000E+00  0.000E+00  1.07274E+03  8.017E-01  1.200E+01  7.800E-02  1.267E+00
   1    5    6     2     2    1.2482E+01  2.2750E-01   1.2255E+01  0.000E+00  0.000E+00  0.000E+00  1.06730E+03  7.917E-01  1.200E+01  6.000E-02  1.264E+00
   1    6    6     2     3    1.2255E+01  2.2697E-01   1.2028E+01  0.000E+00  0.000E+00  0.000E+00  1.06258E+03  7.829E-01  1.200E+01  6.000E-02  1.261E+00
   1    7    6     2     4    1.2028E+01  2.2645E-01   1.1802E+01  0.000E+00  0.000E+00  0.000E+00  1.05785E+03  7.741E-01  1.200E+01  6.000E-02  1.258E+00
   1    8    6     2     5    1.1802E+01  2.2591E-01   1.1576E+01  0.000E+00  0.000E+00  0.000E+00  1.05312E+03  7.652E-01  1.200E+01  6.000E-02  1.255E+00
   1    3    5     3     1    2.0000E+00  2.8252E-01   1.7175E+00  0.000E+00  0.000E+00  0.000E+00  1.07555E+03  1.909E+00  9.636E+00  7.227E-02  1.955E+00
   1    3    6     3     2    1.7175E+00  2.4905E-01   1.4684E+00  0.000E+00  0.000E+00  0.000E+00  1.07264E+03  1.727E+00  8.909E+00  6.682E-02  1.864E+00
   1    3    7     3     3    1.4684E+00  1.9718E-01   1.2712E+00  0.000E+00  0.000E+00  0.000E+00  1.06987E+03  1.555E+00  8.218E+00  5.547E-02  1.777E+00
   1    4    8     3     4    1.2712E+00  2.2567E-01   1.0456E+00  0.000E+00  0.000E+00  0.000E+00  1.06682E+03  1.364E+00  7.455E+00  6.709E-02  1.682E+00
   1    5    8     3     5    1.0456E+00  1.5790E-01   8.8768E-01  0.000E+00  0.000E+00  0.000E+00  1.06362E+03  1.164E+00  6.655E+00  4.991E-02  1.582E+00
   1    6    8     3     6    8.8768E-01  5.5980E-02   8.3170E-01  0.000E+00  0.000E+00  0.000E+00  1.06158E+03  1.036E+00  6.145E+00  1.844E-02  1.518E+00
   1    5   10     4     1    1.0000E+01  9.0919E-02   9.9091E+00  0.000E+00  0.000E+00  0.000E+00  1.07836E+03  6.368E-01  1.000E+01  2.500E-02  1.212E+00
   1    5    9     4     2    9.9091E+00  1.8158E-01   9.7275E+00  0.000E+00  0.000E+00  0.000E+00  1.07154E+03  6.315E-01  1.000E+01  5.000E-02  1.211E+00
   1    6    8     4     3    9.7275E+00  1.2689E-01   9.6006E+00  0.000E+00  0.000E+00  0.000E+00  1.06381E+03  6.256E-01  1.000E+01  3.500E-02  1.209E+00
   1    6    8     5     1    1.0432E+01  2.2686E-01   1.0205E+01  0.000E+00  0.000E+00  0.000E+00  1.05868E+03  6.790E-01  1.542E+01  6.166E-02  1.226E+00
   1    7    7     5     2    1.0205E+01  2.7894E-01   9.9265E+00  0.000E+00  0.000E+00  0.000E+00  1.05417E+03  6.732E-01  1.519E+01  7.594E-02  1.224E+00
   1    8    7     5     3    9.9265E+00  1.9221E-01   9.7343E+00  0.000E+00  0.000E+00  0.000E+00  1.04992E+03  6.676E-01  1.497E+01  5.241E-02  1.223E+00
   1    8    6     5     4    9.7343E+00  1.3577E-01   9.5985E+00  0.000E+00  0.000E+00  0.000E+00  1.04691E+03  6.637E-01  1.482E+01  3.706E-02  1.221E+00
   1    9    6     6     1    2.1174E+01  2.4608E-01   2.0928E+01  0.000E+00  0.000E+00  0.000E+00  1.04383E+03  1.101E+00  1.200E+01  6.000E-02  1.367E+00
   1   10    7     6     2    2.0928E+01  2.4562E-01   2.0682E+01  0.000E+00  0.000E+00  0.000E+00  1.03928E+03  1.094E+00  1.200E+01  6.000E-02  1.365E+00
   1   11    7     6     3    2.0682E+01  2.4515E-01   2.0437E+01  0.000E+00  0.000E+00  0.000E+00  1.03472E+03  1.086E+00  1.200E+01  6.000E-02  1.362E+00
   1   12    7     6     4    2.0437E+01  2.4469E-01   2.0193E+01  0.000E+00  0.000E+00  0.000E+00  1.03017E+03  1.078E+00  1.200E+01  6.000E-02  1.359E+00
   1   13    7     6     5    2.0193E+01 -1.3601E-02   2.0206E+01  0.000E+00  0.000E+00  0.000E+00  1.02698E+03  1.074E+00  1.200E+01  2.400E-01 -1.889E-02
   1   14    9     7     1    1.5000E+02  1.3389E+00   1.4866E+02  0.000E+00  0.000E+00  0.000E+00  1.03987E+03  2.288E+00  5.529E+01  5.593E-01  7.979E-01
   1   13    8     7     2    1.4866E+02  1.8435E+00   1.4682E+02  0.000E+00  0.000E+00  0.000E+00  1.03478E+03  2.279E+00  5.526E+01  6.148E-01  9.995E-01
   1   13    7     7     3    1.4682E+02  1.4796E+00   1.4534E+02  0.000E+00  0.000E+00  0.000E+00  1.02969E+03  2.270E+00  5.522E+01  5.584E-01  8.832E-01
   1   13    6     8     1    1.6554E+02  9.0687E-01   1.6464E+02  0.000E+00  0.000E+00  0.000E+00  1.02479E+03  2.920E+00  4.234E+01  4.315E-01  7.006E-01
   1   13    5     8     2    1.6464E+02  1.6577E-01   1.6447E+02  0.000E+00  0.000E+00  0.000E+00  1.01854E+03  2.916E+00  4.229E+01  4.309E-01  1.282E-01
   1   13    4     8     3    1.6447E+02 -2.4637E+00   1.6694E+02  0.000E+00  0.000E+00  0.000E+00  1.01230E+03  2.924E+00  4.240E+01  4.321E+00 -1.901E-01
   1   13    3     8     4    1.6694E+02 -3.6607E+00   1.7060E+02  0.000E+00  0.000E+00  0.000E+00  1.00607E+03  2.944E+00  4.269E+01  4.350E+00 -2.805E-01
   1   13    2     8     5    1.7060E+02 -2.5776E+00   1.7317E+02  0.000E+00  0.000E+00  0.000E+00  9.99839E+02  2.964E+00  4.298E+01  4.380E+00 -1.962E-01
   1   13    1     8     6    1.7317E+02 -1.9766E+00   1.7515E+02  0.000E+00  0.000E+00  0.000E+00  9.94854E+02  2.979E+00  4.320E+01  2.641E+00 -2.495E-01
   1    8    6     9     1    0.0000E+00  0.0000E+00   0.0000E+00  0.000E+00  0.000E+00  0.000E+00  1.07875E+03  0.000E+00  4.000E+00  0.000E+00  1.000E+00
   1    8    5     9     2    0.0000E+00  0.0000E+00   0.0000E+00  0.000E+00  0.000E+00  0.000E+00  1.07825E+03  0.000E+00  4.000E+00  0.000E+00  1.000E+00





UNSATURATED ZONE PACKAGE VOLUMETRIC BUDGET FOR  TIME STEP    30 STRESS PERIOD   24
  ------------------------------------------------------------------------------



     CUMULATIVE VOLUMES      L**3       RATES FOR THIS TIME STEP      L**3/T
     ------------------                 ------------------------

           IN:                                      IN:
           ---                                      ---
        INFILTRATION =  1232944571.6340          INFILTRATION =           4.4075

          OUT:                                     OUT:
          ----                                     ----
              UZF ET =   996821617.4299                UZF ET =           0.7250
        UZF RECHARGE =     6216406.1210          UZF RECHARGE =       0.0000E+00

            IN - OUT =   229906548.0831              IN - OUT =           3.6825

          STORAGE:                                 STORAGE:
          --------                                 --------
      STORAGE CHANGE =   229907069.9867        STORAGE CHANGE =           3.6825

 PERCENT DISCREPANCY IS DIFFERENCE BETWEEN IN-OUT MINUS CHANGE IN STORAGE
 DIVIDED BY THE AVERAGE OF IN AND OUT TIMES 100

 PERCENT DISCREPANCY =          -0.00     PERCENT DISCREPANCY =           0.00






1
  VOLUMETRIC BUDGET FOR AGRICULTURAL FIELDS AT  END OF TIME STEP   30, STRESS PERIOD  24
  ------------------------------------------------------------------------------

     CUMULATIVE VOLUMES      L**3       RATES FOR THIS TIME STEP      L**3/T
     ------------------                 ------------------------

           IN:                                      IN:
           ---                                      ---
               AG WELLS  =   368416480.0000                 AG WELLS  =           0.0000
      DIVERSION SEGMENTS =   598044480.0000        DIVERSION SEGMENTS =           0.0000
           GW IRRIGATION =           0.0000             GW IRRIGATION =           0.0000
           SW IRRIGATION =           0.0000             SW IRRIGATION =           0.0000
        SYSTEM LOSSES GW =           0.0000          SYSTEM LOSSES GW =           0.0000
        SYSTEM LOSSES SW =           0.0000          SYSTEM LOSSES SW =           0.0000

                TOTAL IN =   966460928.0000                  TOTAL IN =           0.0000

          OUT:                                     OUT:
          ----                                     ----
               AG WELLS  =           0.0000                 AG WELLS  =           0.0000
      DIVERSION SEGMENTS =           0.0000        DIVERSION SEGMENTS =           0.0000
           GW IRRIGATION =   368416480.0000             GW IRRIGATION =           0.0000
           SW IRRIGATION =   598056384.0000             SW IRRIGATION =           0.0000
        SYSTEM LOSSES GW =           0.0000          SYSTEM LOSSES GW =           0.0000
        SYSTEM LOSSES SW =           0.0000          SYSTEM LOSSES SW =           0.0000

               TOTAL OUT =   966472832.0000                 TOTAL OUT =           0.0000

                IN - OUT =      -11904.0000                  IN - OUT =           0.0000

     PERCENT DISCREPANCY =          -0.00         PERCENT DISCREPANCY =           0.00



1
  VOLUMETRIC BUDGET FOR ENTIRE MODEL AT END OF TIME STEP   30, STRESS PERIOD  24
  ------------------------------------------------------------------------------

     CUMULATIVE VOLUMES      L**3       RATES FOR THIS TIME STEP      L**3/T
     ------------------                 ------------------------

           IN:                                      IN:
           ---                                      ---
             STORAGE     =   583113600.0000               STORAGE     =           5.4974
       CONSTANT HEAD     =           0.0000         CONSTANT HEAD     =           0.0000
     HEAD DEP BOUNDS     =    17311554.0000       HEAD DEP BOUNDS     =           0.2860
      STREAM LEAKAGE     =   721771776.0000        STREAM LEAKAGE     =          11.2923
        UZF RECHARGE     =     6216406.0000          UZF RECHARGE     =           0.0000
               GW ET     =           0.0000                 GW ET     =           0.0000
     SURFACE LEAKAGE     =           0.0000       SURFACE LEAKAGE     =           0.0000
           AG WELLS      =           0.0000             AG WELLS      =           0.0000

                TOTAL IN =  1328413440.0000                  TOTAL IN =          17.0756

          OUT:                                     OUT:
          ----                                     ----
             STORAGE     =   285096128.0000               STORAGE     =           6.0945
       CONSTANT HEAD     =           0.0000         CONSTANT HEAD     =           0.0000
     HEAD DEP BOUNDS     =    17607972.0000       HEAD DEP BOUNDS     =           0.2889
      STREAM LEAKAGE     =   655270336.0000        STREAM LEAKAGE     =          10.6921
        UZF RECHARGE     =           0.0000          UZF RECHARGE     =           0.0000
               GW ET     =     2023766.7500                 GW ET     =           0.0000
     SURFACE LEAKAGE     =           0.0000       SURFACE LEAKAGE     =           0.0000
           AG WELLS      =   368416480.0000             AG WELLS      =           0.0000

               TOTAL OUT =  1328414592.0000                 TOTAL OUT =          17.0756

                IN - OUT =       -1152.0000                  IN - OUT =       7.6294E-06

     PERCENT DISCREPANCY =          -0.00         PERCENT DISCREPANCY =           0.00






         TIME SUMMARY AT END OF TIME STEP   30 IN STRESS PERIOD   24
                    SECONDS     MINUTES      HOURS       DAYS        YEARS
                    -----------------------------------------------------------
   TIME STEP LENGTH  87667.      1461.1      24.352      1.0147     2.77799E-03
 STRESS PERIOD TIME 2.63000E+06  43833.      730.56      30.440     8.33397E-02
         TOTAL TIME 6.05767E+07 1.00961E+06  16827.      701.12      1.9196    
1
1
                            STRESS PERIOD NO.   25, LENGTH =   2630000.    
                            -----------------------------------------------

                              NUMBER OF TIME STEPS =    30

                               MULTIPLIER FOR DELT =     1.000

                            INITIAL TIME STEP SIZE =   87666.66    

 REUSING NON-PARAMETER GHB CELLS FROM LAST STRESS PERIOD

      2 GHB CELLS

 REUSING STREAM SEGMENT DATA FROM LAST STRESS PERIOD



            AREAL INFILTRATION RATE
 READING ON UNIT   19 WITH FORMAT: (10F4.0)            

            1           2           3           4           5           6           7           8           9          10
 ........................................................................................................................
   1   1.2000E-09   0.000       0.000       0.000       0.000       0.000       0.000       0.000       0.000       0.000    
   2   2.1000E-09  2.0000E-09  8.0000E-10  8.5000E-09   0.000       0.000       0.000       0.000       0.000       0.000    
   3   5.0000E-10  1.1000E-09  8.8000E-09  5.5000E-09   0.000       0.000       0.000       0.000       0.000       0.000    
   4   8.5000E-09  1.1000E-09  1.1000E-09  1.1000E-09  2.0000E-09   0.000       0.000       0.000       0.000       0.000    
   5   8.5000E-09  1.1000E-09  1.1000E-09  1.1000E-09  1.1000E-09   0.000       0.000       0.000       0.000       0.000    
   6   8.5000E-09  5.2000E-09  2.1000E-09  1.1000E-09  1.5000E-09   0.000       0.000       0.000       0.000       0.000    
   7   8.5000E-09  5.2000E-09  2.1000E-09  1.2000E-09  2.0000E-09   0.000       0.000       0.000       0.000       0.000    
   8   5.0000E-10  5.2000E-09  2.1000E-09  1.2000E-09  5.0000E-09   0.000       0.000       0.000       0.000       0.000    
   9   5.0000E-10  5.2000E-09  2.1000E-09  1.2000E-09  5.0000E-09   0.000       0.000       0.000       0.000       0.000    
  10   5.0000E-10  5.2000E-09  2.1000E-09  1.2000E-09  5.8000E-09   0.000       0.000       0.000       0.000       0.000    
  11   1.0000E-10  1.1000E-09  1.1000E-09  1.2000E-09  5.0000E-09   0.000       0.000       0.000       0.000       0.000    
  12   1.1000E-09  1.1000E-09  1.1000E-09  1.1000E-09  2.0000E-09   0.000       0.000       0.000       0.000       0.000    
  13   1.1000E-09  2.2000E-09  2.2000E-09  2.1000E-09  1.0000E-09   0.000       0.000       0.000       0.000       0.000    
  14   2.0000E-10  5.5000E-09  5.5000E-09  5.2000E-09  1.0000E-09   0.000       0.000       0.000       0.000       0.000    
  15    0.000      8.8000E-09  8.8000E-09   0.000       0.000       0.000       0.000       0.000       0.000       0.000    

                  ET RATE =  5.000000E-10

 USING ET EXTINCTION DEPTH FROM PREVIOUS STRESS PERIOD. CURRENT PERIOD IS:      25

 USING EXTINCTION WATER CONTENT FROM PREVIOUS STRESS PERIOD. CURRENT PERIOD IS:      25

 USING AIR ENTRY PRESSURE FROM PREVIOUS STRESS PERIOD. CURRENT PERIOD IS:      25

 USING ROOT PRESSURE HEAD FROM PREVIOUS STRESS PERIOD. CURRENT PERIOD IS:      25

 USING ROOT ACTIVITY FROM PREVIOUS STRESS PERIOD. CURRENT PERIOD IS:      25

 PROCESSING AG STRESS PERIOD DATA

 READING AG STRESS PERIOD DATA

 READING IRRIGATION SEGMENT

 READING IRRIGATION WELL

 READING SUPPLEMENTAL WELL

 END PROCESSING AG STRESS PERIOD DATA OPTIONS
 
 SOLVING FOR HEAD 
                                                   Max.-Head-Change                         Max.-Flux-Residual
  Residual-Control   Outer-Iter.   Inner-Iter.     Column Row Layer    Maximum-Head-Change  Column Row Layer    Maximum-Flux-Residual          L2-NORM 
          0                 1           2             4    7     1       0.1897398748E-01       4    7    1         0.1000831472E+01      0.2033371521E+01
          0                 2           2             4    7     1      -0.1845660603E-02       4    7    1        -0.1000837588E+00      0.2033357466E+00
          0                 3           1             4    7     1       0.1256825586E-03       4    7    1         0.7005860368E-02      0.1423336813E-01
          0                 4           1             4    7     1      -0.5001028753E-05       4    7    1        -0.2865401093E-03      0.5821413706E-03

    ------------------------------------------------
       NWT REQUIRED            4 OUTER ITERATIONS 
       AND A TOTAL OF          6 INNER ITERATIONS.
    ------------------------------------------------

 NO OUTPUT CONTROL FOR STRESS PERIOD   25   TIME STEP    1
 
 SOLVING FOR HEAD 
                                                   Max.-Head-Change                         Max.-Flux-Residual
  Residual-Control   Outer-Iter.   Inner-Iter.     Column Row Layer    Maximum-Head-Change  Column Row Layer    Maximum-Flux-Residual          L2-NORM 
          0                 1           2             4    7     1       0.1869223207E-01       4    7    1         0.9858634287E+00      0.2011334539E+01
          0                 2           2             4    7     1      -0.1818253200E-02       4    7    1        -0.9858693517E-01      0.2011313289E+00
          0                 3           1             4    7     1       0.1238162186E-03       4    7    1         0.6901082831E-02      0.1407897076E-01
          0                 4           1             4    7     1      -0.4926765580E-05       4    7    1        -0.2822547090E-03      0.5758905964E-03

    ------------------------------------------------
       NWT REQUIRED            4 OUTER ITERATIONS 
       AND A TOTAL OF          6 INNER ITERATIONS.
    ------------------------------------------------

 NO OUTPUT CONTROL FOR STRESS PERIOD   25   TIME STEP    2
 
 SOLVING FOR HEAD 
                                                   Max.-Head-Change                         Max.-Flux-Residual
  Residual-Control   Outer-Iter.   Inner-Iter.     Column Row Layer    Maximum-Head-Change  Column Row Layer    Maximum-Flux-Residual          L2-NORM 
          0                 1           2             4    7     1       0.1841681790E-01       4    7    1         0.9712326210E+00      0.1989231414E+01
          0                 2           2             4    7     1      -0.1791462637E-02       4    7    1        -0.9712383571E-01      0.1989212534E+00
          0                 3           1             4    7     1       0.1219918833E-03       4    7    1         0.6798666001E-02      0.1392438525E-01
          0                 4           1             4    7     1      -0.4854173713E-05       4    7    1        -0.2780658597E-03      0.5696003745E-03

    ------------------------------------------------
       NWT REQUIRED            4 OUTER ITERATIONS 
       AND A TOTAL OF          6 INNER ITERATIONS.
    ------------------------------------------------

 NO OUTPUT CONTROL FOR STRESS PERIOD   25   TIME STEP    3
 
 SOLVING FOR HEAD 
                                                   Max.-Head-Change                         Max.-Flux-Residual
  Residual-Control   Outer-Iter.   Inner-Iter.     Column Row Layer    Maximum-Head-Change  Column Row Layer    Maximum-Flux-Residual          L2-NORM 
          0                 1           2             4    7     1       0.1814731600E-01       4    7    1         0.9569158743E+00      0.1967570100E+01
          0                 2           2             4    7     1      -0.1765247185E-02       4    7    1        -0.9569214302E-01      0.1967552600E+00
          0                 3           1             4    7     1       0.1202067108E-03       4    7    1         0.6698447654E-02      0.1377268508E-01
          0                 4           1             4    7     1      -0.4783139523E-05       4    7    1        -0.2739669039E-03      0.5632887512E-03

    ------------------------------------------------
       NWT REQUIRED            4 OUTER ITERATIONS 
       AND A TOTAL OF          6 INNER ITERATIONS.
    ------------------------------------------------

 NO OUTPUT CONTROL FOR STRESS PERIOD   25   TIME STEP    4
 
 SOLVING FOR HEAD 
                                                   Max.-Head-Change                         Max.-Flux-Residual
  Residual-Control   Outer-Iter.   Inner-Iter.     Column Row Layer    Maximum-Head-Change  Column Row Layer    Maximum-Flux-Residual          L2-NORM 
          0                 1           2             4    7     1       0.1788371370E-01       4    7    1         0.9429130323E+00      0.1946331566E+01
          0                 2           2             4    7     1      -0.1739605613E-02       4    7    1        -0.9429184139E-01      0.1946315351E+00
          0                 3           1             4    7     1       0.1184606176E-03       4    7    1         0.6600426661E-02      0.1362403419E-01
          0                 4           1             4    7     1      -0.4713661168E-05       4    7    1        -0.2699578622E-03      0.5572149339E-03

    ------------------------------------------------
       NWT REQUIRED            4 OUTER ITERATIONS 
       AND A TOTAL OF          6 INNER ITERATIONS.
    ------------------------------------------------

 NO OUTPUT CONTROL FOR STRESS PERIOD   25   TIME STEP    5
 
 SOLVING FOR HEAD 
                                                   Max.-Head-Change                         Max.-Flux-Residual
  Residual-Control   Outer-Iter.   Inner-Iter.     Column Row Layer    Maximum-Head-Change  Column Row Layer    Maximum-Flux-Residual          L2-NORM 
          0                 1           2             4    7     1       0.1762599176E-01       4    7    1         0.9292234393E+00      0.1925513175E+01
          0                 2           2             4    7     1      -0.1714536049E-02       4    7    1        -0.9292286531E-01      0.1925497959E+00
          0                 3           1             4    7     1       0.1167534755E-03       4    7    1         0.6504598446E-02      0.1347831335E-01
          0                 4           1             4    7     1      -0.4645732315E-05       4    7    1        -0.2660384775E-03      0.5512573280E-03

    ------------------------------------------------
       NWT REQUIRED            4 OUTER ITERATIONS 
       AND A TOTAL OF          6 INNER ITERATIONS.
    ------------------------------------------------

 NO OUTPUT CONTROL FOR STRESS PERIOD   25   TIME STEP    6
 
 SOLVING FOR HEAD 
                                                   Max.-Head-Change                         Max.-Flux-Residual
  Residual-Control   Outer-Iter.   Inner-Iter.     Column Row Layer    Maximum-Head-Change  Column Row Layer    Maximum-Flux-Residual          L2-NORM 
          0                 1           2             4    7     1       0.1737372689E-01       4    7    1         0.9158240099E+00      0.1905093060E+01
          0                 2           2             4    7     1      -0.1689997318E-02       4    7    1        -0.9158290615E-01      0.1905079147E+00
          0                 3           1             4    7     1       0.1150824811E-03       4    7    1         0.6410801409E-02      0.1333541083E-01
          0                 4           1             4    7     1      -0.4579241635E-05       4    7    1        -0.2622021739E-03      0.5454079040E-03

    ------------------------------------------------
       NWT REQUIRED            4 OUTER ITERATIONS 
       AND A TOTAL OF          6 INNER ITERATIONS.
    ------------------------------------------------

 NO OUTPUT CONTROL FOR STRESS PERIOD   25   TIME STEP    7
 
 SOLVING FOR HEAD 
                                                   Max.-Head-Change                         Max.-Flux-Residual
  Residual-Control   Outer-Iter.   Inner-Iter.     Column Row Layer    Maximum-Head-Change  Column Row Layer    Maximum-Flux-Residual          L2-NORM 
          0                 1           2             4    7     1       0.1712704692E-01       4    7    1         0.9027222480E+00      0.1885052078E+01
          0                 2           2             4    7     1      -0.1666001854E-02       4    7    1        -0.9027271433E-01      0.1885038746E+00
          0                 3           1             4    7     1       0.1134484814E-03       4    7    1         0.6319088110E-02      0.1319510876E-01
          0                 4           1             4    7     1      -0.4514223208E-05       4    7    1        -0.2584510835E-03      0.5396703375E-03

    ------------------------------------------------
       NWT REQUIRED            4 OUTER ITERATIONS 
       AND A TOTAL OF          6 INNER ITERATIONS.
    ------------------------------------------------

 NO OUTPUT CONTROL FOR STRESS PERIOD   25   TIME STEP    8
 
 SOLVING FOR HEAD 
                                                   Max.-Head-Change                         Max.-Flux-Residual
  Residual-Control   Outer-Iter.   Inner-Iter.     Column Row Layer    Maximum-Head-Change  Column Row Layer    Maximum-Flux-Residual          L2-NORM 
          0                 1           2             4    7     1       0.1688566357E-01       4    7    1         0.8899026925E+00      0.1865385476E+01
          0                 2           2             4    7     1      -0.1642521614E-02       4    7    1        -0.8899074367E-01      0.1865372920E+00
          0                 3           1             4    7     1       0.1118495661E-03       4    7    1         0.6229350266E-02      0.1305747078E-01
          0                 4           1             4    7     1      -0.4450600818E-05       4    7    1        -0.2547807994E-03      0.5340397179E-03

    ------------------------------------------------
       NWT REQUIRED            4 OUTER ITERATIONS 
       AND A TOTAL OF          6 INNER ITERATIONS.
    ------------------------------------------------

 NO OUTPUT CONTROL FOR STRESS PERIOD   25   TIME STEP    9
 
 SOLVING FOR HEAD 
                                                   Max.-Head-Change                         Max.-Flux-Residual
  Residual-Control   Outer-Iter.   Inner-Iter.     Column Row Layer    Maximum-Head-Change  Column Row Layer    Maximum-Flux-Residual          L2-NORM 
          0                 1           2             4    7     1       0.1664956471E-01       4    7    1         0.8773651234E+00      0.1846074063E+01
          0                 2           2             4    7     1      -0.1619555419E-02       4    7    1        -0.8773697221E-01      0.1846062175E+00
          0                 3           1             4    7     1       0.1102856551E-03       4    7    1         0.6141586348E-02      0.1292230391E-01
          0                 4           1             4    7     1      -0.4388371472E-05       4    7    1        -0.2511912458E-03      0.5285131378E-03

    ------------------------------------------------
       NWT REQUIRED            4 OUTER ITERATIONS 
       AND A TOTAL OF          6 INNER ITERATIONS.
    ------------------------------------------------

 NO OUTPUT CONTROL FOR STRESS PERIOD   25   TIME STEP   10
 
 SOLVING FOR HEAD 
                                                   Max.-Head-Change                         Max.-Flux-Residual
  Residual-Control   Outer-Iter.   Inner-Iter.     Column Row Layer    Maximum-Head-Change  Column Row Layer    Maximum-Flux-Residual          L2-NORM 
          0                 1           2             4    7     1       0.1641847168E-01       4    7    1         0.8650941843E+00      0.1827110915E+01
          0                 2           2             4    7     1      -0.1597076162E-02       4    7    1        -0.8650986427E-01      0.1827099762E+00
          0                 3           1             4    7     1       0.1087549033E-03       4    7    1         0.6055688893E-02      0.1278957873E-01
          0                 4           1             4    7     1      -0.4327461373E-05       4    7    1        -0.2476780405E-03      0.5230821179E-03

    ------------------------------------------------
       NWT REQUIRED            4 OUTER ITERATIONS 
       AND A TOTAL OF          6 INNER ITERATIONS.
    ------------------------------------------------

 NO OUTPUT CONTROL FOR STRESS PERIOD   25   TIME STEP   11
 
 SOLVING FOR HEAD 
                                                   Max.-Head-Change                         Max.-Flux-Residual
  Residual-Control   Outer-Iter.   Inner-Iter.     Column Row Layer    Maximum-Head-Change  Column Row Layer    Maximum-Flux-Residual          L2-NORM 
          0                 1           2             4    7     1       0.1619224575E-01       4    7    1         0.8530827905E+00      0.1808483860E+01
          0                 2           2             4    7     1      -0.1575070348E-02       4    7    1        -0.8530871133E-01      0.1808473234E+00
          0                 3           1             4    7     1       0.1072563911E-03       4    7    1         0.5971608287E-02      0.1265916030E-01
          0                 4           1             4    7     1      -0.4267834256E-05       4    7    1        -0.2442391392E-03      0.5177292624E-03

    ------------------------------------------------
       NWT REQUIRED            4 OUTER ITERATIONS 
       AND A TOTAL OF          6 INNER ITERATIONS.
    ------------------------------------------------

 NO OUTPUT CONTROL FOR STRESS PERIOD   25   TIME STEP   12
 
 SOLVING FOR HEAD 
                                                   Max.-Head-Change                         Max.-Flux-Residual
  Residual-Control   Outer-Iter.   Inner-Iter.     Column Row Layer    Maximum-Head-Change  Column Row Layer    Maximum-Flux-Residual          L2-NORM 
          0                 1           2             4    7     1       0.1597088866E-01       4    7    1         0.8413311136E+00      0.1790184380E+01
          0                 2           2             4    7     1      -0.1553538147E-02       4    7    1        -0.8413353058E-01      0.1790174315E+00
          0                 3           1             4    7     1       0.1057901297E-03       4    7    1         0.5889345709E-02      0.1253110249E-01
          0                 4           1             4    7     1      -0.4209490351E-05       4    7    1        -0.2408745918E-03      0.5125346817E-03

    ------------------------------------------------
       NWT REQUIRED            4 OUTER ITERATIONS 
       AND A TOTAL OF          6 INNER ITERATIONS.
    ------------------------------------------------

 NO OUTPUT CONTROL FOR STRESS PERIOD   25   TIME STEP   13
 
 SOLVING FOR HEAD 
                                                   Max.-Head-Change                         Max.-Flux-Residual
  Residual-Control   Outer-Iter.   Inner-Iter.     Column Row Layer    Maximum-Head-Change  Column Row Layer    Maximum-Flux-Residual          L2-NORM 
          0                 1           2             4    7     1       0.1575426483E-01       4    7    1         0.8298318798E+00      0.1772208513E+01
          0                 2           2             4    7     1      -0.1532466371E-02       4    7    1        -0.8298359460E-01      0.1772198717E+00
          0                 3           1             4    7     1       0.1043552216E-03       4    7    1         0.5808850288E-02      0.1240527709E-01
          0                 4           1             4    7     1      -0.4152393738E-05       4    7    1        -0.2375823165E-03      0.5073837825E-03

    ------------------------------------------------
       NWT REQUIRED            4 OUTER ITERATIONS 
       AND A TOTAL OF          6 INNER ITERATIONS.
    ------------------------------------------------

 NO OUTPUT CONTROL FOR STRESS PERIOD   25   TIME STEP   14
 
 SOLVING FOR HEAD 
                                                   Max.-Head-Change                         Max.-Flux-Residual
  Residual-Control   Outer-Iter.   Inner-Iter.     Column Row Layer    Maximum-Head-Change  Column Row Layer    Maximum-Flux-Residual          L2-NORM 
          0                 1           2             4    7     1       0.1554223794E-01       4    7    1         0.8185780601E+00      0.1754538593E+01
          0                 2           2             4    7     1      -0.1511841757E-02       4    7    1        -0.8185820048E-01      0.1754529310E+00
          0                 3           1             4    7     1       0.1029507642E-03       4    7    1         0.5730072793E-02      0.1228160351E-01
          0                 4           1             4    7     1      -0.4096509189E-05       4    7    1        -0.2343603346E-03      0.5022908902E-03

    ------------------------------------------------
       NWT REQUIRED            4 OUTER ITERATIONS 
       AND A TOTAL OF          6 INNER ITERATIONS.
    ------------------------------------------------

 NO OUTPUT CONTROL FOR STRESS PERIOD   25   TIME STEP   15
 
 SOLVING FOR HEAD 
                                                   Max.-Head-Change                         Max.-Flux-Residual
  Residual-Control   Outer-Iter.   Inner-Iter.     Column Row Layer    Maximum-Head-Change  Column Row Layer    Maximum-Flux-Residual          L2-NORM 
          0                 1           2             4    7     1       0.1533453867E-01       4    7    1         0.8075552203E+00      0.1737157466E+01
          0                 2           2             4    7     1      -0.1491638109E-02       4    7    1        -0.8075590476E-01      0.1737148878E+00
          0                 3           1             4    7     1       0.1015749718E-03       4    7    1         0.5652912152E-02      0.1215995461E-01
          0                 4           1             4    7     1      -0.4041765094E-05       4    7    1        -0.2312044417E-03      0.4973331526E-03

    ------------------------------------------------
       NWT REQUIRED            4 OUTER ITERATIONS 
       AND A TOTAL OF          6 INNER ITERATIONS.
    ------------------------------------------------

 NO OUTPUT CONTROL FOR STRESS PERIOD   25   TIME STEP   16
 
 SOLVING FOR HEAD 
                                                   Max.-Head-Change                         Max.-Flux-Residual
  Residual-Control   Outer-Iter.   Inner-Iter.     Column Row Layer    Maximum-Head-Change  Column Row Layer    Maximum-Flux-Residual          L2-NORM 
          0                 1           2             4    7     1       0.1513131615E-01       4    7    1         0.7967714926E+00      0.1720080365E+01
          0                 2           2             4    7     1      -0.1471869933E-02       4    7    1        -0.7967752068E-01      0.1720071829E+00
          0                 3           1             4    7     1       0.1002288340E-03       4    7    1         0.5577425344E-02      0.1204040866E-01
          0                 4           1             4    7     1      -0.3988200827E-05       4    7    1        -0.2281170327E-03      0.4924476643E-03

    ------------------------------------------------
       NWT REQUIRED            4 OUTER ITERATIONS 
       AND A TOTAL OF          6 INNER ITERATIONS.
    ------------------------------------------------

 NO OUTPUT CONTROL FOR STRESS PERIOD   25   TIME STEP   17
 
 SOLVING FOR HEAD 
                                                   Max.-Head-Change                         Max.-Flux-Residual
  Residual-Control   Outer-Iter.   Inner-Iter.     Column Row Layer    Maximum-Head-Change  Column Row Layer    Maximum-Flux-Residual          L2-NORM 
          0                 1           2             4    7     1       0.1493217528E-01       4    7    1         0.7862051476E+00      0.1703284681E+01
          0                 2           2             4    7     1      -0.1452498795E-02       4    7    1        -0.7862087525E-01      0.1703276248E+00
          0                 3           1             4    7     1       0.9890973270E-04       4    7    1         0.5503460216E-02      0.1192283633E-01

    ------------------------------------------------
       NWT REQUIRED            3 OUTER ITERATIONS 
       AND A TOTAL OF          5 INNER ITERATIONS.
    ------------------------------------------------

 NO OUTPUT CONTROL FOR STRESS PERIOD   25   TIME STEP   18
 
 SOLVING FOR HEAD 
                                                   Max.-Head-Change                         Max.-Flux-Residual
  Residual-Control   Outer-Iter.   Inner-Iter.     Column Row Layer    Maximum-Head-Change  Column Row Layer    Maximum-Flux-Residual          L2-NORM 
          0                 1           2             4    7     1       0.1473720156E-01       4    7    1         0.7758616881E+00      0.1686759486E+01
          0                 2           2             4    7     1      -0.1433533015E-02       4    7    1        -0.7758651879E-01      0.1686751281E+00
          0                 3           1             4    7     1       0.9761823482E-04       4    7    1         0.5431055342E-02      0.1180716021E-01

    ------------------------------------------------
       NWT REQUIRED            3 OUTER ITERATIONS 
       AND A TOTAL OF          5 INNER ITERATIONS.
    ------------------------------------------------

 NO OUTPUT CONTROL FOR STRESS PERIOD   25   TIME STEP   19
 
 SOLVING FOR HEAD 
                                                   Max.-Head-Change                         Max.-Flux-Residual
  Residual-Control   Outer-Iter.   Inner-Iter.     Column Row Layer    Maximum-Head-Change  Column Row Layer    Maximum-Flux-Residual          L2-NORM 
          0                 1           2             4    7     1       0.1454607161E-01       4    7    1         0.7657231009E+00      0.1670497569E+01
          0                 2           2             4    7     1      -0.1414941133E-02       4    7    1        -0.7657264987E-01      0.1670489662E+00
          0                 3           1             4    7     1       0.9635219825E-04       4    7    1         0.5360084578E-02      0.1169332563E-01

    ------------------------------------------------
       NWT REQUIRED            3 OUTER ITERATIONS 
       AND A TOTAL OF          5 INNER ITERATIONS.
    ------------------------------------------------

 NO OUTPUT CONTROL FOR STRESS PERIOD   25   TIME STEP   20
 
 SOLVING FOR HEAD 
                                                   Max.-Head-Change                         Max.-Flux-Residual
  Residual-Control   Outer-Iter.   Inner-Iter.     Column Row Layer    Maximum-Head-Change  Column Row Layer    Maximum-Flux-Residual          L2-NORM 
          0                 1           2             4    7     1       0.1435895308E-01       4    7    1         0.7557985382E+00      0.1654515160E+01
          0                 2           2             4    7     1      -0.1396739459E-02       4    7    1        -0.7558018381E-01      0.1654507266E+00
          0                 3           1             4    7     1       0.9511273311E-04       4    7    1         0.5290612030E-02      0.1158146521E-01

    ------------------------------------------------
       NWT REQUIRED            3 OUTER ITERATIONS 
       AND A TOTAL OF          5 INNER ITERATIONS.
    ------------------------------------------------

 NO OUTPUT CONTROL FOR STRESS PERIOD   25   TIME STEP   21
 
 SOLVING FOR HEAD 
                                                   Max.-Head-Change                         Max.-Flux-Residual
  Residual-Control   Outer-Iter.   Inner-Iter.     Column Row Layer    Maximum-Head-Change  Column Row Layer    Maximum-Flux-Residual          L2-NORM 
          0                 1           2             4    7     1       0.1417558758E-01       4    7    1         0.7460745949E+00      0.1638770199E+01
          0                 2           2             4    7     1      -0.1378902855E-02       4    7    1        -0.7460778000E-01      0.1638762739E+00
          0                 3           1             4    7     1       0.9389812777E-04       4    7    1         0.5222543807E-02      0.1147125782E-01

    ------------------------------------------------
       NWT REQUIRED            3 OUTER ITERATIONS 
       AND A TOTAL OF          5 INNER ITERATIONS.
    ------------------------------------------------

 NO OUTPUT CONTROL FOR STRESS PERIOD   25   TIME STEP   22
 
 SOLVING FOR HEAD 
                                                   Max.-Head-Change                         Max.-Flux-Residual
  Residual-Control   Outer-Iter.   Inner-Iter.     Column Row Layer    Maximum-Head-Change  Column Row Layer    Maximum-Flux-Residual          L2-NORM 
          0                 1           2             4    7     1       0.1399587064E-01       4    7    1         0.7365452391E+00      0.1623285840E+01
          0                 2           2             4    7     1      -0.1361421164E-02       4    7    1        -0.7365483529E-01      0.1623278288E+00
          0                 3           1             4    7     1       0.9270769115E-04       4    7    1         0.5155837758E-02      0.1136284191E-01

    ------------------------------------------------
       NWT REQUIRED            3 OUTER ITERATIONS 
       AND A TOTAL OF          5 INNER ITERATIONS.
    ------------------------------------------------

 NO OUTPUT CONTROL FOR STRESS PERIOD   25   TIME STEP   23
 
 SOLVING FOR HEAD 
                                                   Max.-Head-Change                         Max.-Flux-Residual
  Residual-Control   Outer-Iter.   Inner-Iter.     Column Row Layer    Maximum-Head-Change  Column Row Layer    Maximum-Flux-Residual          L2-NORM 
          0                 1           2             4    7     1       0.1381983387E-01       4    7    1         0.7272124226E+00      0.1608045034E+01
          0                 2           2             4    7     1      -0.1344325265E-02       4    7    1        -0.7272154484E-01      0.1608432339E+00
          0                 3           1             4    7     1       0.9154352456E-04       4    7    1         0.5090507471E-02      0.1125893856E-01

    ------------------------------------------------
       NWT REQUIRED            3 OUTER ITERATIONS 
       AND A TOTAL OF          5 INNER ITERATIONS.
    ------------------------------------------------

 NO OUTPUT CONTROL FOR STRESS PERIOD   25   TIME STEP   24
 
 SOLVING FOR HEAD 
                                                   Max.-Head-Change                         Max.-Flux-Residual
  Residual-Control   Outer-Iter.   Inner-Iter.     Column Row Layer    Maximum-Head-Change  Column Row Layer    Maximum-Flux-Residual          L2-NORM 
          0                 1           2             4    7     1       0.1364699099E-01       4    7    1         0.7180542038E+00      0.1593007335E+01
          0                 2           2             4    7     1      -0.1327484441E-02       4    7    1        -0.7180571456E-01      0.1593000276E+00
          0                 3           1             4    7     1       0.9039672860E-04       4    7    1         0.5026399427E-02      0.1115093623E-01

    ------------------------------------------------
       NWT REQUIRED            3 OUTER ITERATIONS 
       AND A TOTAL OF          5 INNER ITERATIONS.
    ------------------------------------------------

 NO OUTPUT CONTROL FOR STRESS PERIOD   25   TIME STEP   25
 
 SOLVING FOR HEAD 
                                                   Max.-Head-Change                         Max.-Flux-Residual
  Residual-Control   Outer-Iter.   Inner-Iter.     Column Row Layer    Maximum-Head-Change  Column Row Layer    Maximum-Flux-Residual          L2-NORM 
          0                 1           2             4    7     1       0.1347774884E-01       4    7    1         0.7090866392E+00      0.1578178072E+01
          0                 2           2             4    7     1      -0.1311021674E-02       4    7    1        -0.7090894997E-01      0.1578171016E+00
          0                 3           1             4    7     1       0.8927567594E-04       4    7    1         0.4963625937E-02      0.1104712406E-01

    ------------------------------------------------
       NWT REQUIRED            3 OUTER ITERATIONS 
       AND A TOTAL OF          5 INNER ITERATIONS.
    ------------------------------------------------

 NO OUTPUT CONTROL FOR STRESS PERIOD   25   TIME STEP   26
 
 SOLVING FOR HEAD 
                                                   Max.-Head-Change                         Max.-Flux-Residual
  Residual-Control   Outer-Iter.   Inner-Iter.     Column Row Layer    Maximum-Head-Change  Column Row Layer    Maximum-Flux-Residual          L2-NORM 
          0                 1           2             4    7     1       0.1331171007E-01       4    7    1         0.7002895544E+00      0.1563575154E+01
          0                 2           2             4    7     1      -0.1294870513E-02       4    7    1        -0.7002923360E-01      0.1563568090E+00
          0                 3           1             4    7     1       0.8817584283E-04       4    7    1         0.4902045840E-02      0.1094488713E-01

    ------------------------------------------------
       NWT REQUIRED            3 OUTER ITERATIONS 
       AND A TOTAL OF          5 INNER ITERATIONS.
    ------------------------------------------------

 NO OUTPUT CONTROL FOR STRESS PERIOD   25   TIME STEP   27
 
 SOLVING FOR HEAD 
                                                   Max.-Head-Change                         Max.-Flux-Residual
  Residual-Control   Outer-Iter.   Inner-Iter.     Column Row Layer    Maximum-Head-Change  Column Row Layer    Maximum-Flux-Residual          L2-NORM 
          0                 1           2             4    7     1       0.1314878544E-01       4    7    1         0.6916585594E+00      0.1549195551E+01
          0                 2           2             4    7     1      -0.1278820772E-02       4    7    1        -0.6916612646E-01      0.1508625326E+00
          0                 3           1             4    7     1       0.8706798128E-04       4    7    1         0.4841628371E-02      0.1057290602E-01

    ------------------------------------------------
       NWT REQUIRED            3 OUTER ITERATIONS 
       AND A TOTAL OF          5 INNER ITERATIONS.
    ------------------------------------------------

 NO OUTPUT CONTROL FOR STRESS PERIOD   25   TIME STEP   28
 
 SOLVING FOR HEAD 
                                                   Max.-Head-Change                         Max.-Flux-Residual
  Residual-Control   Outer-Iter.   Inner-Iter.     Column Row Layer    Maximum-Head-Change  Column Row Layer    Maximum-Flux-Residual          L2-NORM 
          0                 1           2             4    7     1       0.1298938769E-01       4    7    1         0.6832062539E+00      0.1535147520E+01
          0                 2           2             4    7     1      -0.1263094685E-02       4    7    1        -0.6832088834E-01      0.1497066934E+00
          0                 3           1             4    7     1       0.8602546794E-04       4    7    1         0.4782461734E-02      0.1043565551E-01

    ------------------------------------------------
       NWT REQUIRED            3 OUTER ITERATIONS 
       AND A TOTAL OF          5 INNER ITERATIONS.
    ------------------------------------------------

 NO OUTPUT CONTROL FOR STRESS PERIOD   25   TIME STEP   29
 
 SOLVING FOR HEAD 
                                                   Max.-Head-Change                         Max.-Flux-Residual
  Residual-Control   Outer-Iter.   Inner-Iter.     Column Row Layer    Maximum-Head-Change  Column Row Layer    Maximum-Flux-Residual          L2-NORM 
          0                 1           2             4    7     1       0.1283354754E-01       4    7    1         0.6749329479E+00      0.1521281654E+01
          0                 2           2             4    7     1      -0.1247940869E-02       4    7    1        -0.6749355017E-01      0.1483864396E+00
          0                 3           1             4    7     1       0.8499338183E-04       4    7    1         0.4724548106E-02      0.1034383527E-01

    ------------------------------------------------
       NWT REQUIRED            3 OUTER ITERATIONS 
       AND A TOTAL OF          5 INNER ITERATIONS.
    ------------------------------------------------

 NO OUTPUT CONTROL FOR STRESS PERIOD   25   TIME STEP   30



 STREAM LISTING     PERIOD     25   STEP       30

 LAYER ROW COL. STREAM  RCH.  FLOW INTO     FLOW TO   FLOW OUT OF   OVRLND.     DIRECT     STREAM       STREAM     STREAM     STREAM   STREAMBED  STREAMBED
                SEG.NO.  NO.  STRM. RCH.    AQUIFER    STRM. RCH.    RUNOFF     PRECIP       ET          HEAD       DEPTH      WIDTH   CONDCTNC.   GRADIENT

   1    1    1     1     1    1.4942E+01  1.8668E-01   1.4756E+01  0.000E+00  0.000E+00  0.000E+00  1.09406E+03  1.009E+00  1.035E+01  4.656E-02  1.336E+00
   1    2    2     1     2    1.4756E+01  2.8774E-01   1.4468E+01  0.000E+00  0.000E+00  0.000E+00  1.08906E+03  1.004E+00  1.027E+01  7.186E-02  1.335E+00
   1    3    3     1     3    1.4468E+01  2.4407E-01   1.4224E+01  0.000E+00  0.000E+00  0.000E+00  1.08342E+03  9.991E-01  1.017E+01  6.103E-02  1.333E+00
   1    3    4     1     4    1.4224E+01  2.2366E-01   1.4000E+01  0.000E+00  0.000E+00  0.000E+00  1.07840E+03  9.944E-01  1.009E+01  5.599E-02  1.331E+00
   1    4    5     2     1    1.2000E+01  2.9419E-01   1.1706E+01  0.000E+00  0.000E+00  0.000E+00  1.07271E+03  7.717E-01  1.200E+01  7.800E-02  1.257E+00
   1    5    6     2     2    1.1706E+01  2.2569E-01   1.1480E+01  0.000E+00  0.000E+00  0.000E+00  1.06727E+03  7.615E-01  1.200E+01  6.000E-02  1.254E+00
   1    6    6     2     3    1.1480E+01  2.2515E-01   1.1255E+01  0.000E+00  0.000E+00  0.000E+00  1.06255E+03  7.526E-01  1.200E+01  6.000E-02  1.251E+00
   1    7    6     2     4    1.1255E+01  2.2462E-01   1.1031E+01  0.000E+00  0.000E+00  0.000E+00  1.05782E+03  7.436E-01  1.200E+01  6.000E-02  1.248E+00
   1    8    6     2     5    1.1031E+01  2.2408E-01   1.0807E+01  0.000E+00  0.000E+00  0.000E+00  1.05309E+03  7.346E-01  1.200E+01  6.000E-02  1.245E+00
   1    3    5     3     1    2.0000E+00  2.8252E-01   1.7175E+00  0.000E+00  0.000E+00  0.000E+00  1.07555E+03  1.909E+00  9.636E+00  7.227E-02  1.955E+00
   1    3    6     3     2    1.7175E+00  2.4905E-01   1.4684E+00  0.000E+00  0.000E+00  0.000E+00  1.07264E+03  1.727E+00  8.909E+00  6.682E-02  1.864E+00
   1    3    7     3     3    1.4684E+00  1.9718E-01   1.2712E+00  0.000E+00  0.000E+00  0.000E+00  1.06987E+03  1.555E+00  8.218E+00  5.547E-02  1.777E+00
   1    4    8     3     4    1.2712E+00  2.2567E-01   1.0456E+00  0.000E+00  0.000E+00  0.000E+00  1.06682E+03  1.364E+00  7.455E+00  6.709E-02  1.682E+00
   1    5    8     3     5    1.0456E+00  1.5790E-01   8.8768E-01  0.000E+00  0.000E+00  0.000E+00  1.06362E+03  1.164E+00  6.655E+00  4.991E-02  1.582E+00
   1    6    8     3     6    8.8768E-01  5.5980E-02   8.3170E-01  0.000E+00  0.000E+00  0.000E+00  1.06158E+03  1.036E+00  6.145E+00  1.844E-02  1.518E+00
   1    5   10     4     1    1.0000E+01  9.0919E-02   9.9091E+00  0.000E+00  0.000E+00  0.000E+00  1.07836E+03  6.368E-01  1.000E+01  2.500E-02  1.212E+00
   1    5    9     4     2    9.9091E+00  1.8158E-01   9.7275E+00  0.000E+00  0.000E+00  0.000E+00  1.07154E+03  6.315E-01  1.000E+01  5.000E-02  1.211E+00
   1    6    8     4     3    9.7275E+00  1.2689E-01   9.6006E+00  0.000E+00  0.000E+00  0.000E+00  1.06381E+03  6.256E-01  1.000E+01  3.500E-02  1.209E+00
   1    6    8     5     1    1.0432E+01  2.2686E-01   1.0205E+01  0.000E+00  0.000E+00  0.000E+00  1.05868E+03  6.790E-01  1.542E+01  6.166E-02  1.226E+00
   1    7    7     5     2    1.0205E+01  2.7894E-01   9.9265E+00  0.000E+00  0.000E+00  0.000E+00  1.05417E+03  6.732E-01  1.519E+01  7.594E-02  1.224E+00
   1    8    7     5     3    9.9265E+00  1.9221E-01   9.7343E+00  0.000E+00  0.000E+00  0.000E+00  1.04992E+03  6.676E-01  1.497E+01  5.241E-02  1.223E+00
   1    8    6     5     4    9.7343E+00  1.3577E-01   9.5985E+00  0.000E+00  0.000E+00  0.000E+00  1.04691E+03  6.637E-01  1.482E+01  3.706E-02  1.221E+00
   1    9    6     6     1    2.0405E+01  2.4462E-01   2.0161E+01  0.000E+00  0.000E+00  0.000E+00  1.04380E+03  1.077E+00  1.200E+01  6.000E-02  1.359E+00
   1   10    7     6     2    2.0161E+01  2.4416E-01   1.9916E+01  0.000E+00  0.000E+00  0.000E+00  1.03925E+03  1.069E+00  1.200E+01  6.000E-02  1.356E+00
   1   11    7     6     3    1.9916E+01  2.4369E-01   1.9673E+01  0.000E+00  0.000E+00  0.000E+00  1.03470E+03  1.061E+00  1.200E+01  6.000E-02  1.354E+00
   1   12    7     6     4    1.9673E+01  2.4322E-01   1.9429E+01  0.000E+00  0.000E+00  0.000E+00  1.03014E+03  1.054E+00  1.200E+01  6.000E-02  1.351E+00
   1   13    7     6     5    1.9429E+01 -1.6847E-02   1.9446E+01  0.000E+00  0.000E+00  0.000E+00  1.02696E+03  1.050E+00  1.200E+01  2.400E-01 -2.340E-02
   1   14    9     7     1    1.5000E+02  1.3395E+00   1.4866E+02  0.000E+00  0.000E+00  0.000E+00  1.03987E+03  2.288E+00  5.529E+01  5.593E-01  7.983E-01
   1   13    8     7     2    1.4866E+02  1.8456E+00   1.4681E+02  0.000E+00  0.000E+00  0.000E+00  1.03478E+03  2.279E+00  5.526E+01  6.148E-01  1.001E+00
   1   13    7     7     3    1.4681E+02  1.4857E+00   1.4533E+02  0.000E+00  0.000E+00  0.000E+00  1.02969E+03  2.270E+00  5.522E+01  5.584E-01  8.868E-01
   1   13    6     8     1    1.6478E+02  9.1047E-01   1.6387E+02  0.000E+00  0.000E+00  0.000E+00  1.02479E+03  2.915E+00  4.226E+01  4.307E-01  7.047E-01
   1   13    5     8     2    1.6387E+02  1.7111E-01   1.6369E+02  0.000E+00  0.000E+00  0.000E+00  1.01854E+03  2.911E+00  4.221E+01  4.302E-01  1.326E-01
   1   13    4     8     3    1.6369E+02 -2.4424E+00   1.6614E+02  0.000E+00  0.000E+00  0.000E+00  1.01229E+03  2.919E+00  4.232E+01  4.313E+00 -1.888E-01
   1   13    3     8     4    1.6614E+02 -3.6516E+00   1.6979E+02  0.000E+00  0.000E+00  0.000E+00  1.00606E+03  2.939E+00  4.261E+01  4.342E+00 -2.803E-01
   1   13    2     8     5    1.6979E+02 -2.5792E+00   1.7237E+02  0.000E+00  0.000E+00  0.000E+00  9.99834E+02  2.959E+00  4.291E+01  4.373E+00 -1.966E-01
   1   13    1     8     6    1.7237E+02 -1.9812E+00   1.7435E+02  0.000E+00  0.000E+00  0.000E+00  9.94849E+02  2.974E+00  4.312E+01  2.637E+00 -2.505E-01
   1    8    6     9     1    0.0000E+00  0.0000E+00   0.0000E+00  0.000E+00  0.000E+00  0.000E+00  1.07875E+03  0.000E+00  4.000E+00  0.000E+00  1.000E+00
   1    8    5     9     2    0.0000E+00  0.0000E+00   0.0000E+00  0.000E+00  0.000E+00  0.000E+00  1.07825E+03  0.000E+00  4.000E+00  0.000E+00  1.000E+00





UNSATURATED ZONE PACKAGE VOLUMETRIC BUDGET FOR  TIME STEP    30 STRESS PERIOD   25
  ------------------------------------------------------------------------------



     CUMULATIVE VOLUMES      L**3       RATES FOR THIS TIME STEP      L**3/T
     ------------------                 ------------------------

           IN:                                      IN:
           ---                                      ---
        INFILTRATION =  1244536296.1921          INFILTRATION =           4.4075

          OUT:                                     OUT:
          ----                                     ----
              UZF ET =   998728367.3132                UZF ET =           0.7250
        UZF RECHARGE =     6227886.5149          UZF RECHARGE =           0.0537

            IN - OUT =   239580042.3640              IN - OUT =           3.6288

          STORAGE:                                 STORAGE:
          --------                                 --------
      STORAGE CHANGE =   239580564.2031        STORAGE CHANGE =           3.6288

 PERCENT DISCREPANCY IS DIFFERENCE BETWEEN IN-OUT MINUS CHANGE IN STORAGE
 DIVIDED BY THE AVERAGE OF IN AND OUT TIMES 100

 PERCENT DISCREPANCY =          -0.00     PERCENT DISCREPANCY =           0.00






1
  VOLUMETRIC BUDGET FOR AGRICULTURAL FIELDS AT  END OF TIME STEP   30, STRESS PERIOD  25
  ------------------------------------------------------------------------------

     CUMULATIVE VOLUMES      L**3       RATES FOR THIS TIME STEP      L**3/T
     ------------------                 ------------------------

           IN:                                      IN:
           ---                                      ---
               AG WELLS  =   368416480.0000                 AG WELLS  =           0.0000
      DIVERSION SEGMENTS =   598044480.0000        DIVERSION SEGMENTS =           0.0000
           GW IRRIGATION =           0.0000             GW IRRIGATION =           0.0000
           SW IRRIGATION =           0.0000             SW IRRIGATION =           0.0000
        SYSTEM LOSSES GW =           0.0000          SYSTEM LOSSES GW =           0.0000
        SYSTEM LOSSES SW =           0.0000          SYSTEM LOSSES SW =           0.0000

                TOTAL IN =   966460928.0000                  TOTAL IN =           0.0000

          OUT:                                     OUT:
          ----                                     ----
               AG WELLS  =           0.0000                 AG WELLS  =           0.0000
      DIVERSION SEGMENTS =           0.0000        DIVERSION SEGMENTS =           0.0000
           GW IRRIGATION =   368416480.0000             GW IRRIGATION =           0.0000
           SW IRRIGATION =   598056384.0000             SW IRRIGATION =           0.0000
        SYSTEM LOSSES GW =           0.0000          SYSTEM LOSSES GW =           0.0000
        SYSTEM LOSSES SW =           0.0000          SYSTEM LOSSES SW =           0.0000

               TOTAL OUT =   966472832.0000                 TOTAL OUT =           0.0000

                IN - OUT =      -11904.0000                  IN - OUT =           0.0000

     PERCENT DISCREPANCY =          -0.00         PERCENT DISCREPANCY =           0.00



1
  VOLUMETRIC BUDGET FOR ENTIRE MODEL AT END OF TIME STEP   30, STRESS PERIOD  25
  ------------------------------------------------------------------------------

     CUMULATIVE VOLUMES      L**3       RATES FOR THIS TIME STEP      L**3/T
     ------------------                 ------------------------

           IN:                                      IN:
           ---                                      ---
             STORAGE     =   596007232.0000               STORAGE     =           4.3514
       CONSTANT HEAD     =           0.0000         CONSTANT HEAD     =           0.0000
     HEAD DEP BOUNDS     =    18063706.0000       HEAD DEP BOUNDS     =           0.2860
      STREAM LEAKAGE     =   751379456.0000        STREAM LEAKAGE     =          11.2654
        UZF RECHARGE     =     6227886.5000          UZF RECHARGE     =       5.3714E-02
               GW ET     =           0.0000                 GW ET     =           0.0000
     SURFACE LEAKAGE     =           0.0000       SURFACE LEAKAGE     =           0.0000
           AG WELLS      =           0.0000             AG WELLS      =           0.0000

                TOTAL IN =  1371678208.0000                  TOTAL IN =          15.9566

          OUT:                                     OUT:
          ----                                     ----
             STORAGE     =   299459360.0000               STORAGE     =           4.9965
       CONSTANT HEAD     =           0.0000         CONSTANT HEAD     =           0.0000
     HEAD DEP BOUNDS     =    18367642.0000       HEAD DEP BOUNDS     =           0.2888
      STREAM LEAKAGE     =   683412416.0000        STREAM LEAKAGE     =          10.6712
        UZF RECHARGE     =           0.0000          UZF RECHARGE     =           0.0000
               GW ET     =     2023766.7500                 GW ET     =           0.0000
     SURFACE LEAKAGE     =           0.0000       SURFACE LEAKAGE     =           0.0000
           AG WELLS      =   368416480.0000             AG WELLS      =           0.0000

               TOTAL OUT =  1371679616.0000                 TOTAL OUT =          15.9566

                IN - OUT =       -1408.0000                  IN - OUT =      -3.9101E-05

     PERCENT DISCREPANCY =          -0.00         PERCENT DISCREPANCY =          -0.00






         TIME SUMMARY AT END OF TIME STEP   30 IN STRESS PERIOD   25
                    SECONDS     MINUTES      HOURS       DAYS        YEARS
                    -----------------------------------------------------------
   TIME STEP LENGTH  87667.      1461.1      24.352      1.0147     2.77799E-03
 STRESS PERIOD TIME 2.63000E+06  43833.      730.56      30.440     8.33397E-02
         TOTAL TIME 6.32067E+07 1.05345E+06  17557.      731.56      2.0029    
1
1
                            STRESS PERIOD NO.   26, LENGTH =   2630000.    
                            -----------------------------------------------

                              NUMBER OF TIME STEPS =    30

                               MULTIPLIER FOR DELT =     1.000

                            INITIAL TIME STEP SIZE =   87666.66    

 REUSING NON-PARAMETER GHB CELLS FROM LAST STRESS PERIOD

      2 GHB CELLS

 REUSING STREAM SEGMENT DATA FROM LAST STRESS PERIOD



            AREAL INFILTRATION RATE
 READING ON UNIT   19 WITH FORMAT: (10F4.0)            

            1           2           3           4           5           6           7           8           9          10
 ........................................................................................................................
   1   1.2000E-09   0.000       0.000       0.000       0.000       0.000       0.000       0.000       0.000       0.000    
   2   2.1000E-09  2.0000E-09  8.0000E-10  8.5000E-09   0.000       0.000       0.000       0.000       0.000       0.000    
   3   5.0000E-10  1.1000E-09  8.8000E-09  5.5000E-09   0.000       0.000       0.000       0.000       0.000       0.000    
   4   8.5000E-09  1.1000E-09  1.1000E-09  1.1000E-09  2.0000E-09   0.000       0.000       0.000       0.000       0.000    
   5   8.5000E-09  1.1000E-09  1.1000E-09  1.1000E-09  1.1000E-09   0.000       0.000       0.000       0.000       0.000    
   6   8.5000E-09  5.2000E-09  2.1000E-09  1.1000E-09  1.5000E-09   0.000       0.000       0.000       0.000       0.000    
   7   8.5000E-09  5.2000E-09  2.1000E-09  1.2000E-09  2.0000E-09   0.000       0.000       0.000       0.000       0.000    
   8   5.0000E-10  5.2000E-09  2.1000E-09  1.2000E-09  5.0000E-09   0.000       0.000       0.000       0.000       0.000    
   9   5.0000E-10  5.2000E-09  2.1000E-09  1.2000E-09  5.0000E-09   0.000       0.000       0.000       0.000       0.000    
  10   5.0000E-10  5.2000E-09  2.1000E-09  1.2000E-09  5.8000E-09   0.000       0.000       0.000       0.000       0.000    
  11   1.0000E-10  1.1000E-09  1.1000E-09  1.2000E-09  5.0000E-09   0.000       0.000       0.000       0.000       0.000    
  12   1.1000E-09  1.1000E-09  1.1000E-09  1.1000E-09  2.0000E-09   0.000       0.000       0.000       0.000       0.000    
  13   1.1000E-09  2.2000E-09  2.2000E-09  2.1000E-09  1.0000E-09   0.000       0.000       0.000       0.000       0.000    
  14   2.0000E-10  5.5000E-09  5.5000E-09  5.2000E-09  1.0000E-09   0.000       0.000       0.000       0.000       0.000    
  15    0.000      8.8000E-09  8.8000E-09   0.000       0.000       0.000       0.000       0.000       0.000       0.000    

                  ET RATE =  5.000000E-10

 USING ET EXTINCTION DEPTH FROM PREVIOUS STRESS PERIOD. CURRENT PERIOD IS:      26

 USING EXTINCTION WATER CONTENT FROM PREVIOUS STRESS PERIOD. CURRENT PERIOD IS:      26

 USING AIR ENTRY PRESSURE FROM PREVIOUS STRESS PERIOD. CURRENT PERIOD IS:      26

 USING ROOT PRESSURE HEAD FROM PREVIOUS STRESS PERIOD. CURRENT PERIOD IS:      26

 USING ROOT ACTIVITY FROM PREVIOUS STRESS PERIOD. CURRENT PERIOD IS:      26

 PROCESSING AG STRESS PERIOD DATA

 READING AG STRESS PERIOD DATA

 READING IRRIGATION SEGMENT

 READING IRRIGATION WELL

 READING SUPPLEMENTAL WELL

 END PROCESSING AG STRESS PERIOD DATA OPTIONS
 
 SOLVING FOR HEAD 
                                                   Max.-Head-Change                         Max.-Flux-Residual
  Residual-Control   Outer-Iter.   Inner-Iter.     Column Row Layer    Maximum-Head-Change  Column Row Layer    Maximum-Flux-Residual          L2-NORM 
          0                 1           2             4    7     1       0.1268112594E-01       4    7    1         0.6668451865E+00      0.1509491229E+01
          0                 2           2             4    7     1      -0.1233119395E-02       4    7    1        -0.6668476682E-01      0.1472707516E+00
          0                 3           1             4    7     1       0.8398393293E-04       4    7    1         0.4667933311E-02      0.1026608656E-01

    ------------------------------------------------
       NWT REQUIRED            3 OUTER ITERATIONS 
       AND A TOTAL OF          5 INNER ITERATIONS.
    ------------------------------------------------

 NO OUTPUT CONTROL FOR STRESS PERIOD   26   TIME STEP    1
 
 SOLVING FOR HEAD 
                                                   Max.-Head-Change                         Max.-Flux-Residual
  Residual-Control   Outer-Iter.   Inner-Iter.     Column Row Layer    Maximum-Head-Change  Column Row Layer    Maximum-Flux-Residual          L2-NORM 
          0                 1           2             4    7     1       0.1253159075E-01       4    7    1         0.6589125755E+00      0.1491694458E+01
          0                 2           2             4    7     1      -0.1218578413E-02       4    7    1        -0.6589149877E-01      0.1455429780E+00
          0                 3           1             4    7     1       0.8299359375E-04       4    7    1         0.4612404570E-02      0.1014573611E-01

    ------------------------------------------------
       NWT REQUIRED            3 OUTER ITERATIONS 
       AND A TOTAL OF          5 INNER ITERATIONS.
    ------------------------------------------------

 NO OUTPUT CONTROL FOR STRESS PERIOD   26   TIME STEP    2
 
 SOLVING FOR HEAD 
                                                   Max.-Head-Change                         Max.-Flux-Residual
  Residual-Control   Outer-Iter.   Inner-Iter.     Column Row Layer    Maximum-Head-Change  Column Row Layer    Maximum-Flux-Residual          L2-NORM 
          0                 1           2             4    7     1       0.1238523338E-01       4    7    1         0.6511517415E+00      0.1478128905E+01
          0                 2           2             4    7     1      -0.1204346371E-02       4    7    1        -0.6511540871E-01      0.1442401176E+00
          0                 3           1             4    7     1       0.8202429789E-04       4    7    1         0.4558078312E-02      0.1005504685E-01

    ------------------------------------------------
       NWT REQUIRED            3 OUTER ITERATIONS 
       AND A TOTAL OF          5 INNER ITERATIONS.
    ------------------------------------------------

 NO OUTPUT CONTROL FOR STRESS PERIOD   26   TIME STEP    3
 
 SOLVING FOR HEAD 
                                                   Max.-Head-Change                         Max.-Flux-Residual
  Residual-Control   Outer-Iter.   Inner-Iter.     Column Row Layer    Maximum-Head-Change  Column Row Layer    Maximum-Flux-Residual          L2-NORM 
          0                 1           2             4    7     1       0.1224179023E-01       4    7    1         0.6435483124E+00      0.1464863915E+01
          0                 2           2             4    7     1      -0.1190397648E-02       4    7    1        -0.6435505941E-01      0.1429652322E+00
          0                 3           1             4    7     1       0.8107429966E-04       4    7    1         0.4504853891E-02      0.9966363923E-02

    ------------------------------------------------
       NWT REQUIRED            3 OUTER ITERATIONS 
       AND A TOTAL OF          5 INNER ITERATIONS.
    ------------------------------------------------

 NO OUTPUT CONTROL FOR STRESS PERIOD   26   TIME STEP    4
 
 SOLVING FOR HEAD 
                                                   Max.-Head-Change                         Max.-Flux-Residual
  Residual-Control   Outer-Iter.   Inner-Iter.     Column Row Layer    Maximum-Head-Change  Column Row Layer    Maximum-Flux-Residual          L2-NORM 
          0                 1           2             4    7     1       0.1210101593E-01       4    7    1         0.6360886201E+00      0.1451802666E+01
          0                 2           2             4    7     1      -0.1176708371E-02       4    7    1        -0.6360908402E-01      0.1417077933E+00
          0                 3           1             4    7     1       0.8014197453E-04       4    7    1         0.4452635655E-02      0.9878830741E-02

    ------------------------------------------------
       NWT REQUIRED            3 OUTER ITERATIONS 
       AND A TOTAL OF          5 INNER ITERATIONS.
    ------------------------------------------------

 NO OUTPUT CONTROL FOR STRESS PERIOD   26   TIME STEP    5
 
 SOLVING FOR HEAD 
                                                   Max.-Head-Change                         Max.-Flux-Residual
  Residual-Control   Outer-Iter.   Inner-Iter.     Column Row Layer    Maximum-Head-Change  Column Row Layer    Maximum-Flux-Residual          L2-NORM 
          0                 1           2             4    7     1       0.1196294777E-01       4    7    1         0.6287746809E+00      0.1438942715E+01
          0                 2           2             4    7     1      -0.1163282198E-02       4    7    1        -0.6287768419E-01      0.1404682511E+00
          0                 3           1             4    7     1       0.7922756960E-04       4    7    1         0.4401437714E-02      0.9792545776E-02

    ------------------------------------------------
       NWT REQUIRED            3 OUTER ITERATIONS 
       AND A TOTAL OF          5 INNER ITERATIONS.
    ------------------------------------------------

 NO OUTPUT CONTROL FOR STRESS PERIOD   26   TIME STEP    6
 
 SOLVING FOR HEAD 
                                                   Max.-Head-Change                         Max.-Flux-Residual
  Residual-Control   Outer-Iter.   Inner-Iter.     Column Row Layer    Maximum-Head-Change  Column Row Layer    Maximum-Flux-Residual          L2-NORM 
          0                 1           2             4    7     1       0.1182762114E-01       4    7    1         0.6216084276E+00      0.1426286762E+01
          0                 2           2             4    7     1      -0.1150122572E-02       4    7    1        -0.6216105318E-01      0.1392468268E+00
          0                 3           1             4    7     1       0.7833131975E-04       4    7    1         0.4351273561E-02      0.9707517959E-02

    ------------------------------------------------
       NWT REQUIRED            3 OUTER ITERATIONS 
       AND A TOTAL OF          5 INNER ITERATIONS.
    ------------------------------------------------

 NO OUTPUT CONTROL FOR STRESS PERIOD   26   TIME STEP    7
 
 SOLVING FOR HEAD 
                                                   Max.-Head-Change                         Max.-Flux-Residual
  Residual-Control   Outer-Iter.   Inner-Iter.     Column Row Layer    Maximum-Head-Change  Column Row Layer    Maximum-Flux-Residual          L2-NORM 
          0                 1           2             4    7     1       0.1169466620E-01       4    7    1         0.6145695856E+00      0.1413820318E+01
          0                 2           2             4    7     1      -0.1137193528E-02       4    7    1        -0.6145716350E-01      0.1380423528E+00
          0                 3           1             4    7     1       0.7745077554E-04       4    7    1         0.4302001314E-02      0.9623669805E-02

    ------------------------------------------------
       NWT REQUIRED            3 OUTER ITERATIONS 
       AND A TOTAL OF          5 INNER ITERATIONS.
    ------------------------------------------------

 NO OUTPUT CONTROL FOR STRESS PERIOD   26   TIME STEP    8
 
 SOLVING FOR HEAD 
                                                   Max.-Head-Change                         Max.-Flux-Residual
  Residual-Control   Outer-Iter.   Inner-Iter.     Column Row Layer    Maximum-Head-Change  Column Row Layer    Maximum-Flux-Residual          L2-NORM 
          0                 1           2             4    7     1       0.1156414040E-01       4    7    1         0.6076610876E+00      0.1401534330E+01
          0                 2           2             4    7     1      -0.1124500662E-02       4    7    1        -0.6076630840E-01      0.1368540837E+00
          0                 3           1             4    7     1       0.7658631766E-04       4    7    1         0.4253641487E-02      0.9540894614E-02

    ------------------------------------------------
       NWT REQUIRED            3 OUTER ITERATIONS 
       AND A TOTAL OF          5 INNER ITERATIONS.
    ------------------------------------------------

 NO OUTPUT CONTROL FOR STRESS PERIOD   26   TIME STEP    9
 
 SOLVING FOR HEAD 
                                                   Max.-Head-Change                         Max.-Flux-Residual
  Residual-Control   Outer-Iter.   Inner-Iter.     Column Row Layer    Maximum-Head-Change  Column Row Layer    Maximum-Flux-Residual          L2-NORM 
          0                 1           2             4    7     1       0.1143596349E-01       4    7    1         0.6008785428E+00      0.1389432214E+01
          0                 2           2             4    7     1      -0.1112036178E-02       4    7    1        -0.6008804882E-01      0.1356825032E+00
          0                 3           1             4    7     1       0.7573741536E-04       4    7    1         0.4206163346E-02      0.9459290873E-02

    ------------------------------------------------
       NWT REQUIRED            3 OUTER ITERATIONS 
       AND A TOTAL OF          5 INNER ITERATIONS.
    ------------------------------------------------

 NO OUTPUT CONTROL FOR STRESS PERIOD   26   TIME STEP   10
 
 SOLVING FOR HEAD 
                                                   Max.-Head-Change                         Max.-Flux-Residual
  Residual-Control   Outer-Iter.   Inner-Iter.     Column Row Layer    Maximum-Head-Change  Column Row Layer    Maximum-Flux-Residual          L2-NORM 
          0                 1           2             4    7     1       0.1131019348E-01       4    7    1         0.5942251602E+00      0.1377513202E+01
          0                 2           2             4    7     1      -0.1099805724E-02       4    7    1        -0.5942270563E-01      0.1345277577E+00
          0                 3           1             4    7     1       0.7490445290E-04       4    7    1         0.4159589364E-02      0.9378867199E-02

    ------------------------------------------------
       NWT REQUIRED            3 OUTER ITERATIONS 
       AND A TOTAL OF          5 INNER ITERATIONS.
    ------------------------------------------------

 NO OUTPUT CONTROL FOR STRESS PERIOD   26   TIME STEP   11
 
 SOLVING FOR HEAD 
                                                   Max.-Head-Change                         Max.-Flux-Residual
  Residual-Control   Outer-Iter.   Inner-Iter.     Column Row Layer    Maximum-Head-Change  Column Row Layer    Maximum-Flux-Residual          L2-NORM 
          0                 1           2             4    7     1       0.1118648130E-01       4    7    1         0.5876818357E+00      0.1365764726E+01
          0                 2           2             4    7     1      -0.1087775360E-02       4    7    1        -0.5876836840E-01      0.1333888166E+00
          0                 3           1             4    7     1       0.7408511808E-04       4    7    1         0.4113785784E-02      0.9299513699E-02

    ------------------------------------------------
       NWT REQUIRED            3 OUTER ITERATIONS 
       AND A TOTAL OF          5 INNER ITERATIONS.
    ------------------------------------------------

 NO OUTPUT CONTROL FOR STRESS PERIOD   26   TIME STEP   12
 
 SOLVING FOR HEAD 
                                                   Max.-Head-Change                         Max.-Flux-Residual
  Residual-Control   Outer-Iter.   Inner-Iter.     Column Row Layer    Maximum-Head-Change  Column Row Layer    Maximum-Flux-Residual          L2-NORM 
          0                 1           2             4    7     1       0.1106503683E-01       4    7    1         0.5812599514E+00      0.1354180043E+01
          0                 2           2             4    7     1      -0.1075965493E-02       4    7    1        -0.5812617538E-01      0.1322647801E+00
          0                 3           1             4    7     1       0.7328080124E-04       4    7    1         0.4068832289E-02      0.9221183925E-02

    ------------------------------------------------
       NWT REQUIRED            3 OUTER ITERATIONS 
       AND A TOTAL OF          5 INNER ITERATIONS.
    ------------------------------------------------

 NO OUTPUT CONTROL FOR STRESS PERIOD   26   TIME STEP   13
 
 SOLVING FOR HEAD 
                                                   Max.-Head-Change                         Max.-Flux-Residual
  Residual-Control   Outer-Iter.   Inner-Iter.     Column Row Layer    Maximum-Head-Change  Column Row Layer    Maximum-Flux-Residual          L2-NORM 
          0                 1           2             4    7     1       0.1094565452E-01       4    7    1         0.5749482791E+00      0.1342762296E+01
          0                 2           2             4    7     1      -0.1064356148E-02       4    7    1        -0.5749500369E-01      0.1311564803E+00
          0                 3           1             4    7     1       0.7249014128E-04       4    7    1         0.4024650289E-02      0.9143967368E-02

    ------------------------------------------------
       NWT REQUIRED            3 OUTER ITERATIONS 
       AND A TOTAL OF          5 INNER ITERATIONS.
    ------------------------------------------------

 NO OUTPUT CONTROL FOR STRESS PERIOD   26   TIME STEP   14
 
 SOLVING FOR HEAD 
                                                   Max.-Head-Change                         Max.-Flux-Residual
  Residual-Control   Outer-Iter.   Inner-Iter.     Column Row Layer    Maximum-Head-Change  Column Row Layer    Maximum-Flux-Residual          L2-NORM 
          0                 1           2             4    7     1       0.1082827280E-01       4    7    1         0.5687435299E+00      0.1331506771E+01
          0                 2           2             4    7     1      -0.1055272750E-02       4    7    1        -0.5702162654E-01      0.1301103627E+00
          0                 3           1             4    7     1       0.7187148291E-04       4    7    1         0.3991513740E-02      0.9071133162E-02

    ------------------------------------------------
       NWT REQUIRED            3 OUTER ITERATIONS 
       AND A TOTAL OF          5 INNER ITERATIONS.
    ------------------------------------------------

 NO OUTPUT CONTROL FOR STRESS PERIOD   26   TIME STEP   15
 
 SOLVING FOR HEAD 
                                                   Max.-Head-Change                         Max.-Flux-Residual
  Residual-Control   Outer-Iter.   Inner-Iter.     Column Row Layer    Maximum-Head-Change  Column Row Layer    Maximum-Flux-Residual          L2-NORM 
          0                 1           2             4    7     1       0.1070791130E-01       4    7    1         0.5625181743E+00      0.1320361268E+01
          0                 2           2             4    7     1      -0.1041236995E-02       4    7    1        -0.5625199993E-01      0.1289797709E+00
          0                 3           1             4    7     1       0.7091559909E-04       4    7    1         0.3937639938E-02      0.8992301240E-02

    ------------------------------------------------
       NWT REQUIRED            3 OUTER ITERATIONS 
       AND A TOTAL OF          5 INNER ITERATIONS.
    ------------------------------------------------

 NO OUTPUT CONTROL FOR STRESS PERIOD   26   TIME STEP   16
 
 SOLVING FOR HEAD 
                                                   Max.-Head-Change                         Max.-Flux-Residual
  Residual-Control   Outer-Iter.   Inner-Iter.     Column Row Layer    Maximum-Head-Change  Column Row Layer    Maximum-Flux-Residual          L2-NORM 
          0                 1           2             4    7     1       0.1059217945E-01       4    7    1         0.5563943091E+00      0.1309373925E+01
          0                 2           2             4    7     1      -0.1029982514E-02       4    7    1        -0.5563960845E-01      0.1279112826E+00
          0                 3           1             4    7     1       0.7014911128E-04       4    7    1         0.3894772564E-02      0.8917810390E-02

    ------------------------------------------------
       NWT REQUIRED            3 OUTER ITERATIONS 
       AND A TOTAL OF          5 INNER ITERATIONS.
    ------------------------------------------------

 NO OUTPUT CONTROL FOR STRESS PERIOD   26   TIME STEP   17
 
 SOLVING FOR HEAD 
                                                   Max.-Head-Change                         Max.-Flux-Residual
  Residual-Control   Outer-Iter.   Inner-Iter.     Column Row Layer    Maximum-Head-Change  Column Row Layer    Maximum-Flux-Residual          L2-NORM 
          0                 1           2             4    7     1       0.1047847188E-01       4    7    1         0.5503788438E+00      0.1298540806E+01
          0                 2           2             4    7     1      -0.1018924882E-02       4    7    1        -0.5503805716E-01      0.1268574389E+00
          0                 3           1             4    7     1       0.6939603042E-04       4    7    1         0.3852664014E-02      0.8844374194E-02

    ------------------------------------------------
       NWT REQUIRED            3 OUTER ITERATIONS 
       AND A TOTAL OF          5 INNER ITERATIONS.
    ------------------------------------------------

 NO OUTPUT CONTROL FOR STRESS PERIOD   26   TIME STEP   18
 
 SOLVING FOR HEAD 
                                                   Max.-Head-Change                         Max.-Flux-Residual
  Residual-Control   Outer-Iter.   Inner-Iter.     Column Row Layer    Maximum-Head-Change  Column Row Layer    Maximum-Flux-Residual          L2-NORM 
          0                 1           2             4    7     1       0.1036672826E-01       4    7    1         0.5444683368E+00      0.1287857526E+01
          0                 2           2             4    7     1      -0.1008058233E-02       4    7    1        -0.5444700187E-01      0.1258177848E+00
          0                 3           1             4    7     1       0.6865595594E-04       4    7    1         0.3811290154E-02      0.8771888347E-02

    ------------------------------------------------
       NWT REQUIRED            3 OUTER ITERATIONS 
       AND A TOTAL OF          5 INNER ITERATIONS.
    ------------------------------------------------

 NO OUTPUT CONTROL FOR STRESS PERIOD   26   TIME STEP   19
 
 SOLVING FOR HEAD 
                                                   Max.-Head-Change                         Max.-Flux-Residual
  Residual-Control   Outer-Iter.   Inner-Iter.     Column Row Layer    Maximum-Head-Change  Column Row Layer    Maximum-Flux-Residual          L2-NORM 
          0                 1           2             4    7     1       0.1025688793E-01       4    7    1         0.5386596613E+00      0.1277320782E+01
          0                 2           2             4    7     1      -0.9973766700E-03       4    7    1        -0.5386612986E-01      0.1247921358E+00
          0                 3           1             4    7     1       0.6792848715E-04       4    7    1         0.3770629141E-02      0.8700421014E-02

    ------------------------------------------------
       NWT REQUIRED            3 OUTER ITERATIONS 
       AND A TOTAL OF          5 INNER ITERATIONS.
    ------------------------------------------------

 NO OUTPUT CONTROL FOR STRESS PERIOD   26   TIME STEP   20
 
 SOLVING FOR HEAD 
                                                   Max.-Head-Change                         Max.-Flux-Residual
  Residual-Control   Outer-Iter.   Inner-Iter.     Column Row Layer    Maximum-Head-Change  Column Row Layer    Maximum-Flux-Residual          L2-NORM 
          0                 1           2             4    7     1       0.1014902865E-01       4    7    1         0.5329570428E+00      0.1266923297E+01
          0                 2           2             4    7     1      -0.9868877597E-03       4    7    1        -0.5329586374E-01      0.1237797160E+00
          0                 3           1             4    7     1       0.6721413882E-04       4    7    1         0.3730710531E-02      0.8629838883E-02

    ------------------------------------------------
       NWT REQUIRED            3 OUTER ITERATIONS 
       AND A TOTAL OF          5 INNER ITERATIONS.
    ------------------------------------------------

 NO OUTPUT CONTROL FOR STRESS PERIOD   26   TIME STEP   21
 
 SOLVING FOR HEAD 
                                                   Max.-Head-Change                         Max.-Flux-Residual
  Residual-Control   Outer-Iter.   Inner-Iter.     Column Row Layer    Maximum-Head-Change  Column Row Layer    Maximum-Flux-Residual          L2-NORM 
          0                 1           2             4    7     1       0.1004295249E-01       4    7    1         0.5273497692E+00      0.1256668042E+01
          0                 2           2             4    7     1      -0.9765722436E-03       4    7    1        -0.5273513225E-01      0.1227808203E+00
          0                 3           1             4    7     1       0.6651160048E-04       4    7    1         0.3691459371E-02      0.8560216856E-02

    ------------------------------------------------
       NWT REQUIRED            3 OUTER ITERATIONS 
       AND A TOTAL OF          5 INNER ITERATIONS.
    ------------------------------------------------

 NO OUTPUT CONTROL FOR STRESS PERIOD   26   TIME STEP   22
 
 SOLVING FOR HEAD 
                                                   Max.-Head-Change                         Max.-Flux-Residual
  Residual-Control   Outer-Iter.   Inner-Iter.     Column Row Layer    Maximum-Head-Change  Column Row Layer    Maximum-Flux-Residual          L2-NORM 
          0                 1           2             4    7     1       0.9938748931E-02       4    7    1         0.5218423231E+00      0.1246564391E+01
          0                 2           2             4    7     1      -0.9664388433E-03       4    7    1        -0.5218438363E-01      0.1217967071E+00
          0                 3           1             4    7     1       0.6582146347E-04       4    7    1         0.3652906962E-02      0.8491619426E-02

    ------------------------------------------------
       NWT REQUIRED            3 OUTER ITERATIONS 
       AND A TOTAL OF          5 INNER ITERATIONS.
    ------------------------------------------------

 NO OUTPUT CONTROL FOR STRESS PERIOD   26   TIME STEP   23
 
 SOLVING FOR HEAD 
                                                   Max.-Head-Change                         Max.-Flux-Residual
  Residual-Control   Outer-Iter.   Inner-Iter.     Column Row Layer    Maximum-Head-Change  Column Row Layer    Maximum-Flux-Residual          L2-NORM 
          0                 1           2             4    7     1       0.9836226981E-02       4    7    1         0.5164245979E+00      0.1236586911E+01
          0                 2           2             4    7     1      -0.9564689677E-03       4    7    1        -0.5164260725E-01      0.1208245261E+00
          0                 3           1             4    7     1       0.6514246454E-04       4    7    1         0.3614982642E-02      0.8423859685E-02

    ------------------------------------------------
       NWT REQUIRED            3 OUTER ITERATIONS 
       AND A TOTAL OF          5 INNER ITERATIONS.
    ------------------------------------------------

 NO OUTPUT CONTROL FOR STRESS PERIOD   26   TIME STEP   24
 
 SOLVING FOR HEAD 
                                                   Max.-Head-Change                         Max.-Flux-Residual
  Residual-Control   Outer-Iter.   Inner-Iter.     Column Row Layer    Maximum-Head-Change  Column Row Layer    Maximum-Flux-Residual          L2-NORM 
          0                 1           2             4    7     1       0.9735340766E-02       4    7    1         0.5110940642E+00      0.1226744132E+01
          0                 2           2             4    7     1      -0.9466581639E-03       4    7    1        -0.5110955013E-01      0.1198653337E+00
          0                 3           1             4    7     1       0.6447429885E-04       4    7    1         0.3577668669E-02      0.8356990600E-02

    ------------------------------------------------
       NWT REQUIRED            3 OUTER ITERATIONS 
       AND A TOTAL OF          5 INNER ITERATIONS.
    ------------------------------------------------

 NO OUTPUT CONTROL FOR STRESS PERIOD   26   TIME STEP   25
 
 SOLVING FOR HEAD 
                                                   Max.-Head-Change                         Max.-Flux-Residual
  Residual-Control   Outer-Iter.   Inner-Iter.     Column Row Layer    Maximum-Head-Change  Column Row Layer    Maximum-Flux-Residual          L2-NORM 
          0                 1           2             4    7     1       0.9636312617E-02       4    7    1         0.5058630888E+00      0.1217035685E+01
          0                 2           2             4    7     1      -0.9370280531E-03       4    7    1        -0.5058644901E-01      0.1189189923E+00
          0                 3           1             4    7     1       0.6381843911E-04       4    7    1         0.3541051602E-02      0.8291019888E-02

    ------------------------------------------------
       NWT REQUIRED            3 OUTER ITERATIONS 
       AND A TOTAL OF          5 INNER ITERATIONS.
    ------------------------------------------------

 NO OUTPUT CONTROL FOR STRESS PERIOD   26   TIME STEP   26
 
 SOLVING FOR HEAD 
                                                   Max.-Head-Change                         Max.-Flux-Residual
  Residual-Control   Outer-Iter.   Inner-Iter.     Column Row Layer    Maximum-Head-Change  Column Row Layer    Maximum-Flux-Residual          L2-NORM 
          0                 1           2             4    7     1       0.9538682773E-02       4    7    1         0.5007063349E+00      0.1207448803E+01
          0                 2           2             4    7     1      -0.9275339306E-03       4    7    1        -0.5007077010E-01      0.1179845516E+00
          0                 3           1             4    7     1       0.6317184087E-04       4    7    1         0.3504954105E-02      0.8225901783E-02

    ------------------------------------------------
       NWT REQUIRED            3 OUTER ITERATIONS 
       AND A TOTAL OF          5 INNER ITERATIONS.
    ------------------------------------------------

 NO OUTPUT CONTROL FOR STRESS PERIOD   26   TIME STEP   27
 
 SOLVING FOR HEAD 
                                                   Max.-Head-Change                         Max.-Flux-Residual
  Residual-Control   Outer-Iter.   Inner-Iter.     Column Row Layer    Maximum-Head-Change  Column Row Layer    Maximum-Flux-Residual          L2-NORM 
          0                 1           2             4    7     1       0.9442696427E-02       4    7    1         0.4956368286E+00      0.1197996839E+01
          0                 2           2             4    7     1      -0.9181996317E-03       4    7    1        -0.4956381607E-01      0.1170630810E+00
          0                 3           1             4    7     1       0.6253612723E-04       4    7    1         0.3469467339E-02      0.8161644927E-02

    ------------------------------------------------
       NWT REQUIRED            3 OUTER ITERATIONS 
       AND A TOTAL OF          5 INNER ITERATIONS.
    ------------------------------------------------

 NO OUTPUT CONTROL FOR STRESS PERIOD   26   TIME STEP   28
 
 SOLVING FOR HEAD 
                                                   Max.-Head-Change                         Max.-Flux-Residual
  Residual-Control   Outer-Iter.   Inner-Iter.     Column Row Layer    Maximum-Head-Change  Column Row Layer    Maximum-Flux-Residual          L2-NORM 
          0                 1           2             4    7     1       0.9348301891E-02       4    7    1         0.4906525378E+00      0.1188668502E+01
          0                 2           2             4    7     1      -0.9090201392E-03       4    7    1        -0.4906538373E-01      0.1161536163E+00
          0                 3           1             4    7     1       0.6191095656E-04       4    7    1         0.3434577092E-02      0.8098237431E-02

    ------------------------------------------------
       NWT REQUIRED            3 OUTER ITERATIONS 
       AND A TOTAL OF          5 INNER ITERATIONS.
    ------------------------------------------------

 NO OUTPUT CONTROL FOR STRESS PERIOD   26   TIME STEP   29
 
 SOLVING FOR HEAD 
                                                   Max.-Head-Change                         Max.-Flux-Residual
  Residual-Control   Outer-Iter.   Inner-Iter.     Column Row Layer    Maximum-Head-Change  Column Row Layer    Maximum-Flux-Residual          L2-NORM 
          0                 1           2             4    7     1       0.9255319534E-02       4    7    1         0.4857434083E+00      0.1179450899E+01
          0                 2           2             4    7     1      -0.8999779810E-03       4    7    1        -0.4857446761E-01      0.1152548708E+00
          0                 3           1             4    7     1       0.6129513886E-04       4    7    1         0.3400212973E-02      0.8035596316E-02

    ------------------------------------------------
       NWT REQUIRED            3 OUTER ITERATIONS 
       AND A TOTAL OF          5 INNER ITERATIONS.
    ------------------------------------------------

 NO OUTPUT CONTROL FOR STRESS PERIOD   26   TIME STEP   30



 STREAM LISTING     PERIOD     26   STEP       30

 LAYER ROW COL. STREAM  RCH.  FLOW INTO     FLOW TO   FLOW OUT OF   OVRLND.     DIRECT     STREAM       STREAM     STREAM     STREAM   STREAMBED  STREAMBED
                SEG.NO.  NO.  STRM. RCH.    AQUIFER    STRM. RCH.    RUNOFF     PRECIP       ET          HEAD       DEPTH      WIDTH   CONDCTNC.   GRADIENT

   1    1    1     1     1    1.6500E+01  1.9759E-01   1.6303E+01  0.000E+00  0.000E+00  0.000E+00  1.09409E+03  1.039E+00  1.087E+01  4.893E-02  1.346E+00
   1    2    2     1     2    1.6303E+01  3.0466E-01   1.5998E+01  0.000E+00  0.000E+00  0.000E+00  1.08909E+03  1.034E+00  1.079E+01  7.552E-02  1.345E+00
   1    3    3     1     3    1.5998E+01  2.5853E-01   1.5739E+01  0.000E+00  0.000E+00  0.000E+00  1.08345E+03  1.029E+00  1.070E+01  6.417E-02  1.343E+00
   1    3    4     1     4    1.5739E+01  2.3700E-01   1.5502E+01  0.000E+00  0.000E+00  0.000E+00  1.07843E+03  1.024E+00  1.061E+01  5.890E-02  1.341E+00
   1    4    5     2     1    1.3502E+01  2.9865E-01   1.3204E+01  0.000E+00  0.000E+00  0.000E+00  1.07276E+03  8.289E-01  1.200E+01  7.800E-02  1.276E+00
   1    5    6     2     2    1.3204E+01  2.2914E-01   1.2975E+01  0.000E+00  0.000E+00  0.000E+00  1.06733E+03  8.190E-01  1.200E+01  6.000E-02  1.273E+00
   1    6    6     2     3    1.2975E+01  2.2862E-01   1.2746E+01  0.000E+00  0.000E+00  0.000E+00  1.06260E+03  8.104E-01  1.200E+01  6.000E-02  1.270E+00
   1    7    6     2     4    1.2746E+01  2.2810E-01   1.2518E+01  0.000E+00  0.000E+00  0.000E+00  1.05788E+03  8.017E-01  1.200E+01  6.000E-02  1.267E+00
   1    8    6     2     5    1.2518E+01  2.2758E-01   1.2290E+01  0.000E+00  0.000E+00  0.000E+00  1.05315E+03  7.930E-01  1.200E+01  6.000E-02  1.264E+00
   1    3    5     3     1    2.0000E+00  2.8252E-01   1.7175E+00  0.000E+00  0.000E+00  0.000E+00  1.07555E+03  1.909E+00  9.636E+00  7.227E-02  1.955E+00
   1    3    6     3     2    1.7175E+00  2.4905E-01   1.4684E+00  0.000E+00  0.000E+00  0.000E+00  1.07264E+03  1.727E+00  8.909E+00  6.682E-02  1.864E+00
   1    3    7     3     3    1.4684E+00  1.9718E-01   1.2712E+00  0.000E+00  0.000E+00  0.000E+00  1.06987E+03  1.555E+00  8.218E+00  5.547E-02  1.777E+00
   1    4    8     3     4    1.2712E+00  2.2567E-01   1.0456E+00  0.000E+00  0.000E+00  0.000E+00  1.06682E+03  1.364E+00  7.455E+00  6.709E-02  1.682E+00
   1    5    8     3     5    1.0456E+00  1.5790E-01   8.8768E-01  0.000E+00  0.000E+00  0.000E+00  1.06362E+03  1.164E+00  6.655E+00  4.991E-02  1.582E+00
   1    6    8     3     6    8.8768E-01  5.5980E-02   8.3170E-01  0.000E+00  0.000E+00  0.000E+00  1.06158E+03  1.036E+00  6.145E+00  1.844E-02  1.518E+00
   1    5   10     4     1    1.0000E+01  9.0919E-02   9.9091E+00  0.000E+00  0.000E+00  0.000E+00  1.07836E+03  6.368E-01  1.000E+01  2.500E-02  1.212E+00
   1    5    9     4     2    9.9091E+00  1.8158E-01   9.7275E+00  0.000E+00  0.000E+00  0.000E+00  1.07154E+03  6.315E-01  1.000E+01  5.000E-02  1.211E+00
   1    6    8     4     3    9.7275E+00  1.2689E-01   9.6006E+00  0.000E+00  0.000E+00  0.000E+00  1.06381E+03  6.256E-01  1.000E+01  3.500E-02  1.209E+00
   1    6    8     5     1    1.0432E+01  2.2686E-01   1.0205E+01  0.000E+00  0.000E+00  0.000E+00  1.05868E+03  6.790E-01  1.542E+01  6.166E-02  1.226E+00
   1    7    7     5     2    1.0205E+01  2.7894E-01   9.9265E+00  0.000E+00  0.000E+00  0.000E+00  1.05417E+03  6.732E-01  1.519E+01  7.594E-02  1.224E+00
   1    8    7     5     3    9.9265E+00  1.9221E-01   9.7343E+00  0.000E+00  0.000E+00  0.000E+00  1.04992E+03  6.676E-01  1.497E+01  5.241E-02  1.223E+00
   1    8    6     5     4    9.7343E+00  1.3577E-01   9.5985E+00  0.000E+00  0.000E+00  0.000E+00  1.04691E+03  6.637E-01  1.482E+01  3.706E-02  1.221E+00
   1    9    6     6     1    2.1889E+01  2.4742E-01   2.1641E+01  0.000E+00  0.000E+00  0.000E+00  1.04385E+03  1.124E+00  1.200E+01  6.000E-02  1.375E+00
   1   10    7     6     2    2.1641E+01  2.4696E-01   2.1395E+01  0.000E+00  0.000E+00  0.000E+00  1.03930E+03  1.116E+00  1.200E+01  6.000E-02  1.372E+00
   1   11    7     6     3    2.1395E+01  2.4650E-01   2.1148E+01  0.000E+00  0.000E+00  0.000E+00  1.03474E+03  1.108E+00  1.200E+01  6.000E-02  1.369E+00
   1   12    7     6     4    2.1148E+01  2.4603E-01   2.0902E+01  0.000E+00  0.000E+00  0.000E+00  1.03019E+03  1.101E+00  1.200E+01  6.000E-02  1.367E+00
   1   13    7     6     5    2.0902E+01 -3.5539E-03   2.0906E+01  0.000E+00  0.000E+00  0.000E+00  1.02701E+03  1.097E+00  1.200E+01  2.400E-01 -4.936E-03
   1   14    9     7     1    1.5000E+02  1.3402E+00   1.4866E+02  0.000E+00  0.000E+00  0.000E+00  1.03987E+03  2.288E+00  5.529E+01  5.593E-01  7.987E-01
   1   13    8     7     2    1.4866E+02  1.8482E+00   1.4681E+02  0.000E+00  0.000E+00  0.000E+00  1.03478E+03  2.279E+00  5.526E+01  6.148E-01  1.002E+00
   1   13    7     7     3    1.4681E+02  1.4905E+00   1.4532E+02  0.000E+00  0.000E+00  0.000E+00  1.02969E+03  2.270E+00  5.522E+01  5.584E-01  8.897E-01
   1   13    6     8     1    1.6623E+02  9.2404E-01   1.6530E+02  0.000E+00  0.000E+00  0.000E+00  1.02480E+03  2.924E+00  4.240E+01  4.321E-01  7.128E-01
   1   13    5     8     2    1.6530E+02  1.8208E-01   1.6512E+02  0.000E+00  0.000E+00  0.000E+00  1.01855E+03  2.921E+00  4.235E+01  4.316E-01  1.406E-01
   1   13    4     8     3    1.6512E+02 -2.4074E+00   1.6753E+02  0.000E+00  0.000E+00  0.000E+00  1.01230E+03  2.928E+00  4.246E+01  4.327E+00 -1.855E-01
   1   13    3     8     4    1.6753E+02 -3.6315E+00   1.7116E+02  0.000E+00  0.000E+00  0.000E+00  1.00607E+03  2.948E+00  4.274E+01  4.356E+00 -2.779E-01
   1   13    2     8     5    1.7116E+02 -2.5687E+00   1.7373E+02  0.000E+00  0.000E+00  0.000E+00  9.99843E+02  2.968E+00  4.304E+01  4.386E+00 -1.952E-01
   1   13    1     8     6    1.7373E+02 -1.9740E+00   1.7570E+02  0.000E+00  0.000E+00  0.000E+00  9.94858E+02  2.983E+00  4.325E+01  2.644E+00 -2.488E-01
   1    8    6     9     1    0.0000E+00  0.0000E+00   0.0000E+00  0.000E+00  0.000E+00  0.000E+00  1.07875E+03  0.000E+00  4.000E+00  0.000E+00  1.000E+00
   1    8    5     9     2    0.0000E+00  0.0000E+00   0.0000E+00  0.000E+00  0.000E+00  0.000E+00  1.07825E+03  0.000E+00  4.000E+00  0.000E+00  1.000E+00





UNSATURATED ZONE PACKAGE VOLUMETRIC BUDGET FOR  TIME STEP    30 STRESS PERIOD   26
  ------------------------------------------------------------------------------



     CUMULATIVE VOLUMES      L**3       RATES FOR THIS TIME STEP      L**3/T
     ------------------                 ------------------------

           IN:                                      IN:
           ---                                      ---
        INFILTRATION =  1256128020.7502          INFILTRATION =           4.4075

          OUT:                                     OUT:
          ----                                     ----
              UZF ET =  1000635131.0833                UZF ET =           0.7250
        UZF RECHARGE =     6349265.4468          UZF RECHARGE =           0.0406

            IN - OUT =   249143624.2202              IN - OUT =           3.6419

          STORAGE:                                 STORAGE:
          --------                                 --------
      STORAGE CHANGE =   249144145.9923        STORAGE CHANGE =           3.6419

 PERCENT DISCREPANCY IS DIFFERENCE BETWEEN IN-OUT MINUS CHANGE IN STORAGE
 DIVIDED BY THE AVERAGE OF IN AND OUT TIMES 100

 PERCENT DISCREPANCY =          -0.00     PERCENT DISCREPANCY =           0.00






1
  VOLUMETRIC BUDGET FOR AGRICULTURAL FIELDS AT  END OF TIME STEP   30, STRESS PERIOD  26
  ------------------------------------------------------------------------------

     CUMULATIVE VOLUMES      L**3       RATES FOR THIS TIME STEP      L**3/T
     ------------------                 ------------------------

           IN:                                      IN:
           ---                                      ---
               AG WELLS  =   368416480.0000                 AG WELLS  =           0.0000
      DIVERSION SEGMENTS =   598044480.0000        DIVERSION SEGMENTS =           0.0000
           GW IRRIGATION =           0.0000             GW IRRIGATION =           0.0000
           SW IRRIGATION =           0.0000             SW IRRIGATION =           0.0000
        SYSTEM LOSSES GW =           0.0000          SYSTEM LOSSES GW =           0.0000
        SYSTEM LOSSES SW =           0.0000          SYSTEM LOSSES SW =           0.0000

                TOTAL IN =   966460928.0000                  TOTAL IN =           0.0000

          OUT:                                     OUT:
          ----                                     ----
               AG WELLS  =           0.0000                 AG WELLS  =           0.0000
      DIVERSION SEGMENTS =           0.0000        DIVERSION SEGMENTS =           0.0000
           GW IRRIGATION =   368416480.0000             GW IRRIGATION =           0.0000
           SW IRRIGATION =   598056384.0000             SW IRRIGATION =           0.0000
        SYSTEM LOSSES GW =           0.0000          SYSTEM LOSSES GW =           0.0000
        SYSTEM LOSSES SW =           0.0000          SYSTEM LOSSES SW =           0.0000

               TOTAL OUT =   966472832.0000                 TOTAL OUT =           0.0000

                IN - OUT =      -11904.0000                  IN - OUT =           0.0000

     PERCENT DISCREPANCY =          -0.00         PERCENT DISCREPANCY =           0.00



1
  VOLUMETRIC BUDGET FOR ENTIRE MODEL AT END OF TIME STEP   30, STRESS PERIOD  26
  ------------------------------------------------------------------------------

     CUMULATIVE VOLUMES      L**3       RATES FOR THIS TIME STEP      L**3/T
     ------------------                 ------------------------

           IN:                                      IN:
           ---                                      ---
             STORAGE     =   605939904.0000               STORAGE     =           3.3910
       CONSTANT HEAD     =           0.0000         CONSTANT HEAD     =           0.0000
     HEAD DEP BOUNDS     =    18815972.0000       HEAD DEP BOUNDS     =           0.2861
      STREAM LEAKAGE     =   781277888.0000        STREAM LEAKAGE     =          11.3832
        UZF RECHARGE     =     6349265.5000          UZF RECHARGE     =       4.0565E-02
               GW ET     =           0.0000                 GW ET     =           0.0000
     SURFACE LEAKAGE     =           0.0000       SURFACE LEAKAGE     =           0.0000
           AG WELLS      =           0.0000             AG WELLS      =           0.0000

                TOTAL IN =  1412383104.0000                  TOTAL IN =          15.1009

          OUT:                                     OUT:
          ----                                     ----
             STORAGE     =   311569280.0000               STORAGE     =           4.2269
       CONSTANT HEAD     =           0.0000         CONSTANT HEAD     =           0.0000
     HEAD DEP BOUNDS     =    19127444.0000       HEAD DEP BOUNDS     =           0.2890
      STREAM LEAKAGE     =   711247488.0000        STREAM LEAKAGE     =          10.5851
        UZF RECHARGE     =           0.0000          UZF RECHARGE     =           0.0000
               GW ET     =     2023766.7500                 GW ET     =           0.0000
     SURFACE LEAKAGE     =           0.0000       SURFACE LEAKAGE     =           0.0000
           AG WELLS      =   368416480.0000             AG WELLS      =           0.0000

               TOTAL OUT =  1412384384.0000                 TOTAL OUT =          15.1010

                IN - OUT =       -1280.0000                  IN - OUT =      -1.3065E-04

     PERCENT DISCREPANCY =          -0.00         PERCENT DISCREPANCY =          -0.00






         TIME SUMMARY AT END OF TIME STEP   30 IN STRESS PERIOD   26
                    SECONDS     MINUTES      HOURS       DAYS        YEARS
                    -----------------------------------------------------------
   TIME STEP LENGTH  87667.      1461.1      24.352      1.0147     2.77799E-03
 STRESS PERIOD TIME 2.63000E+06  43833.      730.56      30.440     8.33397E-02
         TOTAL TIME 6.58368E+07 1.09728E+06  18288.      762.00      2.0862    
1
1
                            STRESS PERIOD NO.   27, LENGTH =   2630000.    
                            -----------------------------------------------

                              NUMBER OF TIME STEPS =    30

                               MULTIPLIER FOR DELT =     1.000

                            INITIAL TIME STEP SIZE =   87666.66    

 REUSING NON-PARAMETER GHB CELLS FROM LAST STRESS PERIOD

      2 GHB CELLS

 REUSING STREAM SEGMENT DATA FROM LAST STRESS PERIOD



            AREAL INFILTRATION RATE
 READING ON UNIT   19 WITH FORMAT: (10F4.0)            

            1           2           3           4           5           6           7           8           9          10
 ........................................................................................................................
   1   1.2000E-09   0.000       0.000       0.000       0.000       0.000       0.000       0.000       0.000       0.000    
   2   2.1000E-09  2.0000E-09  8.0000E-10  8.5000E-09   0.000       0.000       0.000       0.000       0.000       0.000    
   3   5.0000E-10  1.1000E-09  8.8000E-09  5.5000E-09   0.000       0.000       0.000       0.000       0.000       0.000    
   4   8.5000E-09  1.1000E-09  1.1000E-09  1.1000E-09  2.0000E-09   0.000       0.000       0.000       0.000       0.000    
   5   8.5000E-09  1.1000E-09  1.1000E-09  1.1000E-09  1.1000E-09   0.000       0.000       0.000       0.000       0.000    
   6   8.5000E-09  5.2000E-09  2.1000E-09  1.1000E-09  1.5000E-09   0.000       0.000       0.000       0.000       0.000    
   7   8.5000E-09  5.2000E-09  2.1000E-09  1.2000E-09  2.0000E-09   0.000       0.000       0.000       0.000       0.000    
   8   5.0000E-10  5.2000E-09  2.1000E-09  1.2000E-09  5.0000E-09   0.000       0.000       0.000       0.000       0.000    
   9   5.0000E-10  5.2000E-09  2.1000E-09  1.2000E-09  5.0000E-09   0.000       0.000       0.000       0.000       0.000    
  10   5.0000E-10  5.2000E-09  2.1000E-09  1.2000E-09  5.8000E-09   0.000       0.000       0.000       0.000       0.000    
  11   1.0000E-10  1.1000E-09  1.1000E-09  1.2000E-09  5.0000E-09   0.000       0.000       0.000       0.000       0.000    
  12   1.1000E-09  1.1000E-09  1.1000E-09  1.1000E-09  2.0000E-09   0.000       0.000       0.000       0.000       0.000    
  13   1.1000E-09  2.2000E-09  2.2000E-09  2.1000E-09  1.0000E-09   0.000       0.000       0.000       0.000       0.000    
  14   2.0000E-10  5.5000E-09  5.5000E-09  5.2000E-09  1.0000E-09   0.000       0.000       0.000       0.000       0.000    
  15    0.000      8.8000E-09  8.8000E-09   0.000       0.000       0.000       0.000       0.000       0.000       0.000    

                  ET RATE =  5.000000E-10

 USING ET EXTINCTION DEPTH FROM PREVIOUS STRESS PERIOD. CURRENT PERIOD IS:      27

 USING EXTINCTION WATER CONTENT FROM PREVIOUS STRESS PERIOD. CURRENT PERIOD IS:      27

 USING AIR ENTRY PRESSURE FROM PREVIOUS STRESS PERIOD. CURRENT PERIOD IS:      27

 USING ROOT PRESSURE HEAD FROM PREVIOUS STRESS PERIOD. CURRENT PERIOD IS:      27

 USING ROOT ACTIVITY FROM PREVIOUS STRESS PERIOD. CURRENT PERIOD IS:      27

 PROCESSING AG STRESS PERIOD DATA

 READING AG STRESS PERIOD DATA

 READING IRRIGATION SEGMENT

 READING IRRIGATION WELL

 READING SUPPLEMENTAL WELL

 END PROCESSING AG STRESS PERIOD DATA OPTIONS
 
 SOLVING FOR HEAD 
                                                   Max.-Head-Change                         Max.-Flux-Residual
  Residual-Control   Outer-Iter.   Inner-Iter.     Column Row Layer    Maximum-Head-Change  Column Row Layer    Maximum-Flux-Residual          L2-NORM 
          0                 1           2             4    7     1       0.9163851663E-02       4    7    1         0.4809148734E+00      0.1170355352E+01
          0                 2           2             4    7     1      -0.8910831004E-03       4    7    1        -0.4809161103E-01      0.1143678543E+00
          0                 3           1             4    7     1       0.6068935173E-04       4    7    1         0.3366413028E-02      0.7973756930E-02

    ------------------------------------------------
       NWT REQUIRED            3 OUTER ITERATIONS 
       AND A TOTAL OF          5 INNER ITERATIONS.
    ------------------------------------------------

 NO OUTPUT CONTROL FOR STRESS PERIOD   27   TIME STEP    1
 
 SOLVING FOR HEAD 
                                                   Max.-Head-Change                         Max.-Flux-Residual
  Residual-Control   Outer-Iter.   Inner-Iter.     Column Row Layer    Maximum-Head-Change  Column Row Layer    Maximum-Flux-Residual          L2-NORM 
          0                 1           2             4    7     1       0.9073883842E-02       4    7    1         0.4761648646E+00      0.1161278815E+01
          0                 2           2             4    7     1      -0.8823340336E-03       4    7    1        -0.4761660717E-01      0.1138499899E+00
          0                 3           1             4    7     1       0.6009349647E-04       4    7    1         0.3333162765E-02      0.7965788933E-02

    ------------------------------------------------
       NWT REQUIRED            3 OUTER ITERATIONS 
       AND A TOTAL OF          5 INNER ITERATIONS.
    ------------------------------------------------

 NO OUTPUT CONTROL FOR STRESS PERIOD   27   TIME STEP    2
 
 SOLVING FOR HEAD 
                                                   Max.-Head-Change                         Max.-Flux-Residual
  Residual-Control   Outer-Iter.   Inner-Iter.     Column Row Layer    Maximum-Head-Change  Column Row Layer    Maximum-Flux-Residual          L2-NORM 
          0                 1           2             4    7     1       0.8985344301E-02       4    7    1         0.4714852632E+00      0.1283958355E+01
          0                 2           2             4    7     1      -0.8737234951E-03       4    7    1        -0.4714864407E-01      0.1253664034E+00
          0                 3           1             4    7     1       0.5950708732E-04       4    7    1         0.3300405355E-02      0.8683994463E-02

    ------------------------------------------------
       NWT REQUIRED            3 OUTER ITERATIONS 
       AND A TOTAL OF          5 INNER ITERATIONS.
    ------------------------------------------------

 NO OUTPUT CONTROL FOR STRESS PERIOD   27   TIME STEP    3
 
 SOLVING FOR HEAD 
                                                   Max.-Head-Change                         Max.-Flux-Residual
  Residual-Control   Outer-Iter.   Inner-Iter.     Column Row Layer    Maximum-Head-Change  Column Row Layer    Maximum-Flux-Residual          L2-NORM 
          0                 1           2             4    7     1       0.8898321888E-02       4    7    1         0.4668871138E+00      0.1257391804E+01
          0                 2           2             4    7     1      -0.8652605350E-03       4    7    1        -0.4668882624E-01      0.1227831958E+00
          0                 3           1             4    7     1       0.5893072885E-04       4    7    1         0.3268218131E-02      0.8511990208E-02

    ------------------------------------------------
       NWT REQUIRED            3 OUTER ITERATIONS 
       AND A TOTAL OF          5 INNER ITERATIONS.
    ------------------------------------------------

 NO OUTPUT CONTROL FOR STRESS PERIOD   27   TIME STEP    4
 
 SOLVING FOR HEAD 
                                                   Max.-Head-Change                         Max.-Flux-Residual
  Residual-Control   Outer-Iter.   Inner-Iter.     Column Row Layer    Maximum-Head-Change  Column Row Layer    Maximum-Flux-Residual          L2-NORM 
          0                 1           2             4    7     1       0.8812639685E-02       4    7    1         0.4623602507E+00      0.1233499627E+01
          0                 2           2             4    7     1      -0.8569279341E-03       4    7    1        -0.4623613717E-01      0.1204593017E+00
          0                 3           1             4    7     1       0.5836324670E-04       4    7    1         0.3236529911E-02      0.8356024881E-02

    ------------------------------------------------
       NWT REQUIRED            3 OUTER ITERATIONS 
       AND A TOTAL OF          5 INNER ITERATIONS.
    ------------------------------------------------

 NO OUTPUT CONTROL FOR STRESS PERIOD   27   TIME STEP    5
 
 SOLVING FOR HEAD 
                                                   Max.-Head-Change                         Max.-Flux-Residual
  Residual-Control   Outer-Iter.   Inner-Iter.     Column Row Layer    Maximum-Head-Change  Column Row Layer    Maximum-Flux-Residual          L2-NORM 
          0                 1           2             4    7     1       0.8728536466E-02       4    7    1         0.4579176244E+00      0.1211920749E+01
          0                 2           2             4    7     1      -0.8487489170E-03       4    7    1        -0.4579187183E-01      0.1183592478E+00
          0                 3           1             4    7     1       0.5780622373E-04       4    7    1         0.3205431347E-02      0.8214988751E-02

    ------------------------------------------------
       NWT REQUIRED            3 OUTER ITERATIONS 
       AND A TOTAL OF          5 INNER ITERATIONS.
    ------------------------------------------------

 NO OUTPUT CONTROL FOR STRESS PERIOD   27   TIME STEP    6
 
 SOLVING FOR HEAD 
                                                   Max.-Head-Change                         Max.-Flux-Residual
  Residual-Control   Outer-Iter.   Inner-Iter.     Column Row Layer    Maximum-Head-Change  Column Row Layer    Maximum-Flux-Residual          L2-NORM 
          0                 1           2             4    7     1       0.8645689617E-02       4    7    1         0.4535421180E+00      0.1192329282E+01
          0                 2           2             4    7     1      -0.8406921117E-03       4    7    1        -0.4535431857E-01      0.1164526197E+00
          0                 3           1             4    7     1       0.5725752302E-04       4    7    1         0.3174802646E-02      0.8087597145E-02

    ------------------------------------------------
       NWT REQUIRED            3 OUTER ITERATIONS 
       AND A TOTAL OF          5 INNER ITERATIONS.
    ------------------------------------------------

 NO OUTPUT CONTROL FOR STRESS PERIOD   27   TIME STEP    7
 
 SOLVING FOR HEAD 
                                                   Max.-Head-Change                         Max.-Flux-Residual
  Residual-Control   Outer-Iter.   Inner-Iter.     Column Row Layer    Maximum-Head-Change  Column Row Layer    Maximum-Flux-Residual          L2-NORM 
          0                 1           2             4    7     1       0.8564071048E-02       4    7    1         0.4492317520E+00      0.1174451638E+01
          0                 2           2             4    7     1      -0.8327547836E-03       4    7    1        -0.4492327945E-01      0.1147121543E+00
          0                 3           1             4    7     1       0.5671695783E-04       4    7    1         0.3144629907E-02      0.7970184789E-02

    ------------------------------------------------
       NWT REQUIRED            3 OUTER ITERATIONS 
       AND A TOTAL OF          5 INNER ITERATIONS.
    ------------------------------------------------

 NO OUTPUT CONTROL FOR STRESS PERIOD   27   TIME STEP    8
 
 SOLVING FOR HEAD 
                                                   Max.-Head-Change                         Max.-Flux-Residual
  Residual-Control   Outer-Iter.   Inner-Iter.     Column Row Layer    Maximum-Head-Change  Column Row Layer    Maximum-Flux-Residual          L2-NORM 
          0                 1           2             4    7     1       0.8483915368E-02       4    7    1         0.4449998200E+00      0.1158069512E+01
          0                 2           2             4    7     1      -0.8249597449E-03       4    7    1        -0.4450008382E-01      0.1131166461E+00
          0                 3           1             4    7     1       0.5618608253E-04       4    7    1         0.3115006210E-02      0.7863029132E-02

    ------------------------------------------------
       NWT REQUIRED            3 OUTER ITERATIONS 
       AND A TOTAL OF          5 INNER ITERATIONS.
    ------------------------------------------------

 NO OUTPUT CONTROL FOR STRESS PERIOD   27   TIME STEP    9
 
 SOLVING FOR HEAD 
                                                   Max.-Head-Change                         Max.-Flux-Residual
  Residual-Control   Outer-Iter.   Inner-Iter.     Column Row Layer    Maximum-Head-Change  Column Row Layer    Maximum-Flux-Residual          L2-NORM 
          0                 1           2             4    7     1       0.8404913700E-02       4    7    1         0.4408289876E+00      0.1142967670E+01
          0                 2           2             4    7     1      -0.8172769580E-03       4    7    1        -0.4408299819E-01      0.1116458209E+00
          0                 3           1             4    7     1       0.5566285117E-04       4    7    1         0.3085810224E-02      0.7763894691E-02

    ------------------------------------------------
       NWT REQUIRED            3 OUTER ITERATIONS 
       AND A TOTAL OF          5 INNER ITERATIONS.
    ------------------------------------------------

 NO OUTPUT CONTROL FOR STRESS PERIOD   27   TIME STEP   10
 
 SOLVING FOR HEAD 
                                                   Max.-Head-Change                         Max.-Flux-Residual
  Residual-Control   Outer-Iter.   Inner-Iter.     Column Row Layer    Maximum-Head-Change  Column Row Layer    Maximum-Flux-Residual          L2-NORM 
          0                 1           2             4    7     1       0.8327310344E-02       4    7    1         0.4367327391E+00      0.1128988534E+01
          0                 2           2             4    7     1      -0.8097301777E-03       4    7    1        -0.4367337104E-01      0.1102833412E+00
          0                 3           1             4    7     1       0.5514888239E-04       4    7    1         0.3057136351E-02      0.7671489572E-02

    ------------------------------------------------
       NWT REQUIRED            3 OUTER ITERATIONS 
       AND A TOTAL OF          5 INNER ITERATIONS.
    ------------------------------------------------

 NO OUTPUT CONTROL FOR STRESS PERIOD   27   TIME STEP   11
 
 SOLVING FOR HEAD 
                                                   Max.-Head-Change                         Max.-Flux-Residual
  Residual-Control   Outer-Iter.   Inner-Iter.     Column Row Layer    Maximum-Head-Change  Column Row Layer    Maximum-Flux-Residual          L2-NORM 
          0                 1           2             4    7     1       0.8250791196E-02       4    7    1         0.4326942415E+00      0.1115966629E+01
          0                 2           2             4    7     1      -0.8022888576E-03       4    7    1        -0.4326951904E-01      0.1090138915E+00
          0                 3           1             4    7     1       0.5464209450E-04       4    7    1         0.3028866722E-02      0.7585181261E-02

    ------------------------------------------------
       NWT REQUIRED            3 OUTER ITERATIONS 
       AND A TOTAL OF          5 INNER ITERATIONS.
    ------------------------------------------------

 NO OUTPUT CONTROL FOR STRESS PERIOD   27   TIME STEP   12
 
 SOLVING FOR HEAD 
                                                   Max.-Head-Change                         Max.-Flux-Residual
  Residual-Control   Outer-Iter.   Inner-Iter.     Column Row Layer    Maximum-Head-Change  Column Row Layer    Maximum-Flux-Residual          L2-NORM 
          0                 1           2             4    7     1       0.8175461169E-02       4    7    1         0.4287193338E+00      0.1103773648E+01
          0                 2           2             4    7     1      -0.7949632031E-03       4    7    1        -0.4287202613E-01      0.1078253437E+00
          0                 3           1             4    7     1       0.5414318322E-04       4    7    1         0.3001042221E-02      0.7504452701E-02

    ------------------------------------------------
       NWT REQUIRED            3 OUTER ITERATIONS 
       AND A TOTAL OF          5 INNER ITERATIONS.
    ------------------------------------------------

 NO OUTPUT CONTROL FOR STRESS PERIOD   27   TIME STEP   13
 
 SOLVING FOR HEAD 
                                                   Max.-Head-Change                         Max.-Flux-Residual
  Residual-Control   Outer-Iter.   Inner-Iter.     Column Row Layer    Maximum-Head-Change  Column Row Layer    Maximum-Flux-Residual          L2-NORM 
          0                 1           2             4    7     1       0.8101160155E-02       4    7    1         0.4247987049E+00      0.1092326880E+01
          0                 2           2             4    7     1      -0.7877376294E-03       4    7    1        -0.4247996112E-01      0.1067093660E+00
          0                 3           1             4    7     1       0.5365108766E-04       4    7    1         0.2973597672E-02      0.7428387735E-02

    ------------------------------------------------
       NWT REQUIRED            3 OUTER ITERATIONS 
       AND A TOTAL OF          5 INNER ITERATIONS.
    ------------------------------------------------

 NO OUTPUT CONTROL FOR STRESS PERIOD   27   TIME STEP   14
 
 SOLVING FOR HEAD 
                                                   Max.-Head-Change                         Max.-Flux-Residual
  Residual-Control   Outer-Iter.   Inner-Iter.     Column Row Layer    Maximum-Head-Change  Column Row Layer    Maximum-Flux-Residual          L2-NORM 
          0                 1           2             4    7     1       0.8028138353E-02       4    7    1         0.4209461807E+00      0.1081514897E+01
          0                 2           2             4    7     1      -0.7806364750E-03       4    7    1        -0.4209470666E-01      0.1056547028E+00
          0                 3           1             4    7     1       0.5316746535E-04       4    7    1         0.2946629884E-02      0.7356148034E-02

    ------------------------------------------------
       NWT REQUIRED            3 OUTER ITERATIONS 
       AND A TOTAL OF          5 INNER ITERATIONS.
    ------------------------------------------------

 NO OUTPUT CONTROL FOR STRESS PERIOD   27   TIME STEP   15
 
 SOLVING FOR HEAD 
                                                   Max.-Head-Change                         Max.-Flux-Residual
  Residual-Control   Outer-Iter.   Inner-Iter.     Column Row Layer    Maximum-Head-Change  Column Row Layer    Maximum-Flux-Residual          L2-NORM 
          0                 1           2             4    7     1       0.7956216439E-02       4    7    1         0.4171526070E+00      0.1071238373E+01
          0                 2           2             4    7     1      -0.7736423137E-03       4    7    1        -0.4171534733E-01      0.1046547869E+00
          0                 3           1             4    7     1       0.5269112856E-04       4    7    1         0.2920074750E-02      0.7290575046E-02

    ------------------------------------------------
       NWT REQUIRED            3 OUTER ITERATIONS 
       AND A TOTAL OF          5 INNER ITERATIONS.
    ------------------------------------------------

 NO OUTPUT CONTROL FOR STRESS PERIOD   27   TIME STEP   16
 
 SOLVING FOR HEAD 
                                                   Max.-Head-Change                         Max.-Flux-Residual
  Residual-Control   Outer-Iter.   Inner-Iter.     Column Row Layer    Maximum-Head-Change  Column Row Layer    Maximum-Flux-Residual          L2-NORM 
          0                 1           2             4    7     1       0.7885235440E-02       4    7    1         0.4134086849E+00      0.1061469481E+01
          0                 2           2             4    7     1      -0.7667396531E-03       4    7    1        -0.4134095319E-01      0.1036993669E+00
          0                 3           1             4    7     1       0.5222102278E-04       4    7    1         0.2893867138E-02      0.7222444152E-02

    ------------------------------------------------
       NWT REQUIRED            3 OUTER ITERATIONS 
       AND A TOTAL OF          5 INNER ITERATIONS.
    ------------------------------------------------

 NO OUTPUT CONTROL FOR STRESS PERIOD   27   TIME STEP   17
 
 SOLVING FOR HEAD 
                                                   Max.-Head-Change                         Max.-Flux-Residual
  Residual-Control   Outer-Iter.   Inner-Iter.     Column Row Layer    Maximum-Head-Change  Column Row Layer    Maximum-Flux-Residual          L2-NORM 
          0                 1           2             4    7     1       0.7815445707E-02       4    7    1         0.4097283008E+00      0.1052132689E+01
          0                 2           2             4    7     1      -0.7599528650E-03       4    7    1        -0.4097291292E-01      0.1027885393E+00
          0                 3           1             4    7     1       0.5175880852E-04       4    7    1         0.2868104345E-02      0.7160189283E-02

    ------------------------------------------------
       NWT REQUIRED            3 OUTER ITERATIONS 
       AND A TOTAL OF          5 INNER ITERATIONS.
    ------------------------------------------------

 NO OUTPUT CONTROL FOR STRESS PERIOD   27   TIME STEP   18
 
 SOLVING FOR HEAD 
                                                   Max.-Head-Change                         Max.-Flux-Residual
  Residual-Control   Outer-Iter.   Inner-Iter.     Column Row Layer    Maximum-Head-Change  Column Row Layer    Maximum-Flux-Residual          L2-NORM 
          0                 1           2             4    7     1       0.7746544023E-02       4    7    1         0.4060949306E+00      0.1043179489E+01
          0                 2           2             4    7     1      -0.7532524527E-03       4    7    1        -0.4060957407E-01      0.1019145814E+00
          0                 3           1             4    7     1       0.5130247618E-04       4    7    1         0.2842670631E-02      0.7099776559E-02

    ------------------------------------------------
       NWT REQUIRED            3 OUTER ITERATIONS 
       AND A TOTAL OF          5 INNER ITERATIONS.
    ------------------------------------------------

 NO OUTPUT CONTROL FOR STRESS PERIOD   27   TIME STEP   19
 
 SOLVING FOR HEAD 
                                                   Max.-Head-Change                         Max.-Flux-Residual
  Residual-Control   Outer-Iter.   Inner-Iter.     Column Row Layer    Maximum-Head-Change  Column Row Layer    Maximum-Flux-Residual          L2-NORM 
          0                 1           2             4    7     1       0.7678784655E-02       4    7    1         0.4025223570E+00      0.1034557197E+01
          0                 2           2             4    7     1      -0.7466631412E-03       4    7    1        -0.4025231498E-01      0.1010674285E+00
          0                 3           1             4    7     1       0.5085370958E-04       4    7    1         0.2817662484E-02      0.7041567904E-02

    ------------------------------------------------
       NWT REQUIRED            3 OUTER ITERATIONS 
       AND A TOTAL OF          5 INNER ITERATIONS.
    ------------------------------------------------

 NO OUTPUT CONTROL FOR STRESS PERIOD   27   TIME STEP   20
 
 SOLVING FOR HEAD 
                                                   Max.-Head-Change                         Max.-Flux-Residual
  Residual-Control   Outer-Iter.   Inner-Iter.     Column Row Layer    Maximum-Head-Change  Column Row Layer    Maximum-Flux-Residual          L2-NORM 
          0                 1           2             4    7     1       0.7611865603E-02       4    7    1         0.3989942593E+00      0.1026249961E+01
          0                 2           2             4    7     1      -0.7401555617E-03       4    7    1        -0.3989950348E-01      0.1002624802E+00
          0                 3           1             4    7     1       0.5041050894E-04       4    7    1         0.2792965698E-02      0.6985914571E-02

    ------------------------------------------------
       NWT REQUIRED            3 OUTER ITERATIONS 
       AND A TOTAL OF          5 INNER ITERATIONS.
    ------------------------------------------------

 NO OUTPUT CONTROL FOR STRESS PERIOD   27   TIME STEP   21
 
 SOLVING FOR HEAD 
                                                   Max.-Head-Change                         Max.-Flux-Residual
  Residual-Control   Outer-Iter.   Inner-Iter.     Column Row Layer    Maximum-Head-Change  Column Row Layer    Maximum-Flux-Residual          L2-NORM 
          0                 1           2             4    7     1       0.7545904334E-02       4    7    1         0.3955171074E+00      0.1019360197E+01
          0                 2           2             4    7     1      -0.7337411409E-03       4    7    1        -0.3955178664E-01      0.9980858914E-01
          0                 3           1             4    7     1       0.4997365256E-04       4    7    1         0.2768625533E-02      0.7035184166E-02

    ------------------------------------------------
       NWT REQUIRED            3 OUTER ITERATIONS 
       AND A TOTAL OF          5 INNER ITERATIONS.
    ------------------------------------------------

 NO OUTPUT CONTROL FOR STRESS PERIOD   27   TIME STEP   22
 
 SOLVING FOR HEAD 
                                                   Max.-Head-Change                         Max.-Flux-Residual
  Residual-Control   Outer-Iter.   Inner-Iter.     Column Row Layer    Maximum-Head-Change  Column Row Layer    Maximum-Flux-Residual          L2-NORM 
          0                 1           2             4    7     1       0.7481013890E-02       4    7    1         0.3920969921E+00      0.1013131866E+01
          0                 2           2             4    7     1      -0.7274308557E-03       4    7    1        -0.3920977347E-01      0.9929411664E-01
          0                 3           1             4    7     1       0.4954388786E-04       4    7    1         0.2744684606E-02      0.7035588864E-02

    ------------------------------------------------
       NWT REQUIRED            3 OUTER ITERATIONS 
       AND A TOTAL OF          5 INNER ITERATIONS.
    ------------------------------------------------

 NO OUTPUT CONTROL FOR STRESS PERIOD   27   TIME STEP   23
 
 SOLVING FOR HEAD 
                                                   Max.-Head-Change                         Max.-Flux-Residual
  Residual-Control   Outer-Iter.   Inner-Iter.     Column Row Layer    Maximum-Head-Change  Column Row Layer    Maximum-Flux-Residual          L2-NORM 
          0                 1           2             4    7     1       0.7416892562E-02       4    7    1         0.3887176458E+00      0.1004957410E+01
          0                 2           2             4    7     1      -0.7211953860E-03       4    7    1        -0.3887183727E-01      0.9843239724E-01
          0                 3           1             4    7     1       0.4911921827E-04       4    7    1         0.2721029073E-02      0.6951895095E-02

    ------------------------------------------------
       NWT REQUIRED            3 OUTER ITERATIONS 
       AND A TOTAL OF          5 INNER ITERATIONS.
    ------------------------------------------------

 NO OUTPUT CONTROL FOR STRESS PERIOD   27   TIME STEP   24
 
 SOLVING FOR HEAD 
                                                   Max.-Head-Change                         Max.-Flux-Residual
  Residual-Control   Outer-Iter.   Inner-Iter.     Column Row Layer    Maximum-Head-Change  Column Row Layer    Maximum-Flux-Residual          L2-NORM 
          0                 1           2             4    7     1       0.7353804589E-02       4    7    1         0.3853929304E+00      0.9971248973E+00
          0                 2           2             4    7     1      -0.7150604157E-03       4    7    1        -0.3853936420E-01      0.9761731418E-01
          0                 3           1             4    7     1       0.4870139267E-04       4    7    1         0.2697755964E-02      0.6876303497E-02

    ------------------------------------------------
       NWT REQUIRED            3 OUTER ITERATIONS 
       AND A TOTAL OF          5 INNER ITERATIONS.
    ------------------------------------------------

 NO OUTPUT CONTROL FOR STRESS PERIOD   27   TIME STEP   25
 
 SOLVING FOR HEAD 
                                                   Max.-Head-Change                         Max.-Flux-Residual
  Residual-Control   Outer-Iter.   Inner-Iter.     Column Row Layer    Maximum-Head-Change  Column Row Layer    Maximum-Flux-Residual          L2-NORM 
          0                 1           2             4    7     1       0.7291442208E-02       4    7    1         0.3821070405E+00      0.9895654285E+00
          0                 2           2             4    7     1      -0.7089960089E-03       4    7    1        -0.3821077373E-01      0.9683953360E-01
          0                 3           1             4    7     1       0.4828837261E-04       4    7    1         0.2674754629E-02      0.6807242914E-02

    ------------------------------------------------
       NWT REQUIRED            3 OUTER ITERATIONS 
       AND A TOTAL OF          5 INNER ITERATIONS.
    ------------------------------------------------

 NO OUTPUT CONTROL FOR STRESS PERIOD   27   TIME STEP   26
 
 SOLVING FOR HEAD 
                                                   Max.-Head-Change                         Max.-Flux-Residual
  Residual-Control   Outer-Iter.   Inner-Iter.     Column Row Layer    Maximum-Head-Change  Column Row Layer    Maximum-Flux-Residual          L2-NORM 
          0                 1           2             4    7     1       0.7230072346E-02       4    7    1         0.3788735261E+00      0.9822650270E+00
          0                 2           2             4    7     1      -0.7030281387E-03       4    7    1        -0.3788742084E-01      0.9609566662E-01
          0                 3           1             4    7     1       0.4788192732E-04       4    7    1         0.2652119937E-02      0.6743693675E-02

    ------------------------------------------------
       NWT REQUIRED            3 OUTER ITERATIONS 
       AND A TOTAL OF          5 INNER ITERATIONS.
    ------------------------------------------------

 NO OUTPUT CONTROL FOR STRESS PERIOD   27   TIME STEP   27
 
 SOLVING FOR HEAD 
                                                   Max.-Head-Change                         Max.-Flux-Residual
  Residual-Control   Outer-Iter.   Inner-Iter.     Column Row Layer    Maximum-Head-Change  Column Row Layer    Maximum-Flux-Residual          L2-NORM 
          0                 1           2             4    7     1       0.7169526834E-02       4    7    1         0.3756840960E+00      0.9751764640E+00
          0                 2           2             4    7     1      -0.6971404376E-03       4    7    1        -0.3756847642E-01      0.9537897987E-01
          0                 3           1             4    7     1       0.4748094138E-04       4    7    1         0.2629793847E-02      0.6684568914E-02

    ------------------------------------------------
       NWT REQUIRED            3 OUTER ITERATIONS 
       AND A TOTAL OF          5 INNER ITERATIONS.
    ------------------------------------------------

 NO OUTPUT CONTROL FOR STRESS PERIOD   27   TIME STEP   28
 
 SOLVING FOR HEAD 
                                                   Max.-Head-Change                         Max.-Flux-Residual
  Residual-Control   Outer-Iter.   Inner-Iter.     Column Row Layer    Maximum-Head-Change  Column Row Layer    Maximum-Flux-Residual          L2-NORM 
          0                 1           2             4    7     1       0.7109791442E-02       4    7    1         0.3725374082E+00      0.9682792733E+00
          0                 2           2             4    7     1      -0.6913315301E-03       4    7    1        -0.3725380627E-01      0.9468640844E-01
          0                 3           1             4    7     1       0.4708532107E-04       4    7    1         0.2607766928E-02      0.6628878827E-02

    ------------------------------------------------
       NWT REQUIRED            3 OUTER ITERATIONS 
       AND A TOTAL OF          5 INNER ITERATIONS.
    ------------------------------------------------

 NO OUTPUT CONTROL FOR STRESS PERIOD   27   TIME STEP   29
 
 SOLVING FOR HEAD 
                                                   Max.-Head-Change                         Max.-Flux-Residual
  Residual-Control   Outer-Iter.   Inner-Iter.     Column Row Layer    Maximum-Head-Change  Column Row Layer    Maximum-Flux-Residual          L2-NORM 
          0                 1           2             4    7     1       0.7050847229E-02       4    7    1         0.3694327245E+00      0.9615562958E+00
          0                 2           2             4    7     1      -0.6855995734E-03       4    7    1        -0.3694333656E-01      0.9401515859E-01
          0                 3           1             4    7     1       0.4669494128E-04       4    7    1         0.2586034062E-02      0.6576652909E-02

    ------------------------------------------------
       NWT REQUIRED            3 OUTER ITERATIONS 
       AND A TOTAL OF          5 INNER ITERATIONS.
    ------------------------------------------------

 NO OUTPUT CONTROL FOR STRESS PERIOD   27   TIME STEP   30



 STREAM LISTING     PERIOD     27   STEP       30

 LAYER ROW COL. STREAM  RCH.  FLOW INTO     FLOW TO   FLOW OUT OF   OVRLND.     DIRECT     STREAM       STREAM     STREAM     STREAM   STREAMBED  STREAMBED
                SEG.NO.  NO.  STRM. RCH.    AQUIFER    STRM. RCH.    RUNOFF     PRECIP       ET          HEAD       DEPTH      WIDTH   CONDCTNC.   GRADIENT

   1    1    1     1     1    3.1499E+01  2.7310E-01   3.1226E+01  0.000E+00  0.000E+00  0.000E+00  1.09431E+03  1.262E+00  1.424E+01  6.407E-02  1.421E+00
   1    2    2     1     2    3.1226E+01  4.2272E-01   3.0803E+01  0.000E+00  0.000E+00  0.000E+00  1.08932E+03  1.259E+00  1.418E+01  9.925E-02  1.420E+00
   1    3    3     1     3    3.0803E+01  3.6028E-01   3.0443E+01  0.000E+00  0.000E+00  0.000E+00  1.08367E+03  1.256E+00  1.411E+01  8.466E-02  1.419E+00
   1    3    4     1     4    3.0443E+01  3.3158E-01   3.0111E+01  0.000E+00  0.000E+00  0.000E+00  1.07866E+03  1.253E+00  1.405E+01  7.797E-02  1.418E+00
   1    4    5     2     1    2.8111E+01  3.3470E-01   2.7777E+01  0.000E+00  0.000E+00  0.000E+00  1.07322E+03  1.291E+00  1.200E+01  7.800E-02  1.430E+00
   1    5    6     2     2    2.7777E+01  2.5697E-01   2.7520E+01  0.000E+00  0.000E+00  0.000E+00  1.06779E+03  1.283E+00  1.200E+01  6.000E-02  1.428E+00
   1    6    6     2     3    2.7520E+01  2.5654E-01   2.7263E+01  0.000E+00  0.000E+00  0.000E+00  1.06307E+03  1.276E+00  1.200E+01  6.000E-02  1.425E+00
   1    7    6     2     4    2.7263E+01  2.5611E-01   2.7007E+01  0.000E+00  0.000E+00  0.000E+00  1.05834E+03  1.268E+00  1.200E+01  6.000E-02  1.423E+00
   1    8    6     2     5    2.7007E+01  2.5567E-01   2.6751E+01  0.000E+00  0.000E+00  0.000E+00  1.05362E+03  1.261E+00  1.200E+01  6.000E-02  1.420E+00
   1    3    5     3     1    2.0000E+00  2.8252E-01   1.7175E+00  0.000E+00  0.000E+00  0.000E+00  1.07555E+03  1.909E+00  9.636E+00  7.227E-02  1.955E+00
   1    3    6     3     2    1.7175E+00  2.4905E-01   1.4684E+00  0.000E+00  0.000E+00  0.000E+00  1.07264E+03  1.727E+00  8.909E+00  6.682E-02  1.864E+00
   1    3    7     3     3    1.4684E+00  1.9718E-01   1.2712E+00  0.000E+00  0.000E+00  0.000E+00  1.06987E+03  1.555E+00  8.218E+00  5.547E-02  1.777E+00
   1    4    8     3     4    1.2712E+00  2.2567E-01   1.0456E+00  0.000E+00  0.000E+00  0.000E+00  1.06682E+03  1.364E+00  7.455E+00  6.709E-02  1.682E+00
   1    5    8     3     5    1.0456E+00  1.5790E-01   8.8768E-01  0.000E+00  0.000E+00  0.000E+00  1.06362E+03  1.164E+00  6.655E+00  4.991E-02  1.582E+00
   1    6    8     3     6    8.8768E-01  5.5980E-02   8.3170E-01  0.000E+00  0.000E+00  0.000E+00  1.06158E+03  1.036E+00  6.145E+00  1.844E-02  1.518E+00
   1    5   10     4     1    1.0000E+01  9.0919E-02   9.9091E+00  0.000E+00  0.000E+00  0.000E+00  1.07836E+03  6.368E-01  1.000E+01  2.500E-02  1.212E+00
   1    5    9     4     2    9.9091E+00  1.8158E-01   9.7275E+00  0.000E+00  0.000E+00  0.000E+00  1.07154E+03  6.315E-01  1.000E+01  5.000E-02  1.211E+00
   1    6    8     4     3    9.7275E+00  1.2689E-01   9.6006E+00  0.000E+00  0.000E+00  0.000E+00  1.06381E+03  6.256E-01  1.000E+01  3.500E-02  1.209E+00
   1    6    8     5     1    1.0432E+01  2.2686E-01   1.0205E+01  0.000E+00  0.000E+00  0.000E+00  1.05868E+03  6.790E-01  1.542E+01  6.166E-02  1.226E+00
   1    7    7     5     2    1.0205E+01  2.7894E-01   9.9265E+00  0.000E+00  0.000E+00  0.000E+00  1.05417E+03  6.732E-01  1.519E+01  7.594E-02  1.224E+00
   1    8    7     5     3    9.9265E+00  1.9221E-01   9.7343E+00  0.000E+00  0.000E+00  0.000E+00  1.04992E+03  6.676E-01  1.497E+01  5.241E-02  1.223E+00
   1    8    6     5     4    9.7343E+00  1.3577E-01   9.5985E+00  0.000E+00  0.000E+00  0.000E+00  1.04691E+03  6.637E-01  1.482E+01  3.706E-02  1.221E+00
   1    9    6     6     1    3.6350E+01  2.7151E-01   3.6078E+01  0.000E+00  0.000E+00  0.000E+00  1.04425E+03  1.525E+00  1.200E+01  6.000E-02  1.508E+00
   1   10    7     6     2    3.6078E+01  2.7109E-01   3.5807E+01  0.000E+00  0.000E+00  0.000E+00  1.03970E+03  1.518E+00  1.200E+01  6.000E-02  1.506E+00
   1   11    7     6     3    3.5807E+01  2.7068E-01   3.5537E+01  0.000E+00  0.000E+00  0.000E+00  1.03515E+03  1.511E+00  1.200E+01  6.000E-02  1.504E+00
   1   12    7     6     4    3.5537E+01  2.7027E-01   3.5266E+01  0.000E+00  0.000E+00  0.000E+00  1.03060E+03  1.504E+00  1.200E+01  6.000E-02  1.501E+00
   1   13    7     6     5    3.5266E+01  9.4268E-03   3.5257E+01  0.000E+00  0.000E+00  0.000E+00  1.02741E+03  1.501E+00  1.200E+01  2.400E-02  1.309E-01
   1   14    9     7     1    1.5000E+02  1.3408E+00   1.4866E+02  0.000E+00  0.000E+00  0.000E+00  1.03987E+03  2.288E+00  5.529E+01  5.593E-01  7.991E-01
   1   13    8     7     2    1.4866E+02  1.8507E+00   1.4681E+02  0.000E+00  0.000E+00  0.000E+00  1.03478E+03  2.279E+00  5.526E+01  6.148E-01  1.003E+00
   1   13    7     7     3    1.4681E+02  1.4924E+00   1.4532E+02  0.000E+00  0.000E+00  0.000E+00  1.02969E+03  2.270E+00  5.522E+01  5.584E-01  8.908E-01
   1   13    6     8     1    1.8057E+02  9.9033E-01   1.7958E+02  0.000E+00  0.000E+00  0.000E+00  1.02489E+03  3.017E+00  4.374E+01  4.457E-01  7.406E-01
   1   13    5     8     2    1.7958E+02  2.2389E-01   1.7936E+02  0.000E+00  0.000E+00  0.000E+00  1.01864E+03  3.013E+00  4.369E+01  4.452E-01  1.676E-01
   1   13    4     8     3    1.7936E+02 -2.3007E+00   1.8166E+02  0.000E+00  0.000E+00  0.000E+00  1.01239E+03  3.019E+00  4.378E+01  4.461E+00 -1.719E-01
   1   13    3     8     4    1.8166E+02 -3.5906E+00   1.8525E+02  0.000E+00  0.000E+00  0.000E+00  1.00616E+03  3.038E+00  4.405E+01  4.489E+00 -2.666E-01
   1   13    2     8     5    1.8525E+02 -2.5164E+00   1.8777E+02  0.000E+00  0.000E+00  0.000E+00  9.99932E+02  3.057E+00  4.432E+01  4.516E+00 -1.857E-01
   1   13    1     8     6    1.8777E+02 -1.9269E+00   1.8969E+02  0.000E+00  0.000E+00  0.000E+00  9.94945E+02  3.070E+00  4.452E+01  2.722E+00 -2.360E-01
   1    8    6     9     1    0.0000E+00  0.0000E+00   0.0000E+00  0.000E+00  0.000E+00  0.000E+00  1.07875E+03  0.000E+00  4.000E+00  0.000E+00  1.000E+00
   1    8    5     9     2    0.0000E+00  0.0000E+00   0.0000E+00  0.000E+00  0.000E+00  0.000E+00  1.07825E+03  0.000E+00  4.000E+00  0.000E+00  1.000E+00





UNSATURATED ZONE PACKAGE VOLUMETRIC BUDGET FOR  TIME STEP    30 STRESS PERIOD   27
  ------------------------------------------------------------------------------



     CUMULATIVE VOLUMES      L**3       RATES FOR THIS TIME STEP      L**3/T
     ------------------                 ------------------------

           IN:                                      IN:
           ---                                      ---
        INFILTRATION =  1267719745.3083          INFILTRATION =           4.4075

          OUT:                                     OUT:
          ----                                     ----
              UZF ET =  1002541880.9508                UZF ET =           0.7250
        UZF RECHARGE =     6489956.5823          UZF RECHARGE =           0.0859

            IN - OUT =   258687907.7753              IN - OUT =           3.5966

          STORAGE:                                 STORAGE:
          --------                                 --------
      STORAGE CHANGE =   258688429.4780        STORAGE CHANGE =           3.5966

 PERCENT DISCREPANCY IS DIFFERENCE BETWEEN IN-OUT MINUS CHANGE IN STORAGE
 DIVIDED BY THE AVERAGE OF IN AND OUT TIMES 100

 PERCENT DISCREPANCY =          -0.00     PERCENT DISCREPANCY =           0.00






1
  VOLUMETRIC BUDGET FOR AGRICULTURAL FIELDS AT  END OF TIME STEP   30, STRESS PERIOD  27
  ------------------------------------------------------------------------------

     CUMULATIVE VOLUMES      L**3       RATES FOR THIS TIME STEP      L**3/T
     ------------------                 ------------------------

           IN:                                      IN:
           ---                                      ---
               AG WELLS  =   368416480.0000                 AG WELLS  =           0.0000
      DIVERSION SEGMENTS =   598044480.0000        DIVERSION SEGMENTS =           0.0000
           GW IRRIGATION =           0.0000             GW IRRIGATION =           0.0000
           SW IRRIGATION =           0.0000             SW IRRIGATION =           0.0000
        SYSTEM LOSSES GW =           0.0000          SYSTEM LOSSES GW =           0.0000
        SYSTEM LOSSES SW =           0.0000          SYSTEM LOSSES SW =           0.0000

                TOTAL IN =   966460928.0000                  TOTAL IN =           0.0000

          OUT:                                     OUT:
          ----                                     ----
               AG WELLS  =           0.0000                 AG WELLS  =           0.0000
      DIVERSION SEGMENTS =           0.0000        DIVERSION SEGMENTS =           0.0000
           GW IRRIGATION =   368416480.0000             GW IRRIGATION =           0.0000
           SW IRRIGATION =   598056384.0000             SW IRRIGATION =           0.0000
        SYSTEM LOSSES GW =           0.0000          SYSTEM LOSSES GW =           0.0000
        SYSTEM LOSSES SW =           0.0000          SYSTEM LOSSES SW =           0.0000

               TOTAL OUT =   966472832.0000                 TOTAL OUT =           0.0000

                IN - OUT =      -11904.0000                  IN - OUT =           0.0000

     PERCENT DISCREPANCY =          -0.00         PERCENT DISCREPANCY =           0.00



1
  VOLUMETRIC BUDGET FOR ENTIRE MODEL AT END OF TIME STEP   30, STRESS PERIOD  27
  ------------------------------------------------------------------------------

     CUMULATIVE VOLUMES      L**3       RATES FOR THIS TIME STEP      L**3/T
     ------------------                 ------------------------

           IN:                                      IN:
           ---                                      ---
             STORAGE     =   612810112.0000               STORAGE     =           2.2713
       CONSTANT HEAD     =           0.0000         CONSTANT HEAD     =           0.0000
     HEAD DEP BOUNDS     =    19568358.0000       HEAD DEP BOUNDS     =           0.2861
      STREAM LEAKAGE     =   813089472.0000        STREAM LEAKAGE     =          12.1403
        UZF RECHARGE     =     6489956.5000          UZF RECHARGE     =       8.5899E-02
               GW ET     =           0.0000                 GW ET     =           0.0000
     SURFACE LEAKAGE     =           0.0000       SURFACE LEAKAGE     =           0.0000
           AG WELLS      =           0.0000             AG WELLS      =           0.0000

                TOTAL IN =  1451957888.0000                  TOTAL IN =          14.7835

          OUT:                                     OUT:
          ----                                     ----
             STORAGE     =   323844000.0000               STORAGE     =           4.1584
       CONSTANT HEAD     =           0.0000         CONSTANT HEAD     =           0.0000
     HEAD DEP BOUNDS     =    19890254.0000       HEAD DEP BOUNDS     =           0.2908
      STREAM LEAKAGE     =   737785856.0000        STREAM LEAKAGE     =          10.3347
        UZF RECHARGE     =           0.0000          UZF RECHARGE     =           0.0000
               GW ET     =     2023766.7500                 GW ET     =           0.0000
     SURFACE LEAKAGE     =           0.0000       SURFACE LEAKAGE     =           0.0000
           AG WELLS      =   368416480.0000             AG WELLS      =           0.0000

               TOTAL OUT =  1451960448.0000                 TOTAL OUT =          14.7839

                IN - OUT =       -2560.0000                  IN - OUT =      -3.5286E-04

     PERCENT DISCREPANCY =          -0.00         PERCENT DISCREPANCY =          -0.00






         TIME SUMMARY AT END OF TIME STEP   30 IN STRESS PERIOD   27
                    SECONDS     MINUTES      HOURS       DAYS        YEARS
                    -----------------------------------------------------------
   TIME STEP LENGTH  87667.      1461.1      24.352      1.0147     2.77799E-03
 STRESS PERIOD TIME 2.63000E+06  43833.      730.56      30.440     8.33397E-02
         TOTAL TIME 6.84668E+07 1.14111E+06  19019.      792.44      2.1696    
1
1
                            STRESS PERIOD NO.   28, LENGTH =   2630000.    
                            -----------------------------------------------

                              NUMBER OF TIME STEPS =    30

                               MULTIPLIER FOR DELT =     1.000

                            INITIAL TIME STEP SIZE =   87666.66    

 REUSING NON-PARAMETER GHB CELLS FROM LAST STRESS PERIOD

      2 GHB CELLS

 REUSING STREAM SEGMENT DATA FROM LAST STRESS PERIOD



            AREAL INFILTRATION RATE
 READING ON UNIT   19 WITH FORMAT: (10F4.0)            

            1           2           3           4           5           6           7           8           9          10
 ........................................................................................................................
   1   1.2000E-09   0.000       0.000       0.000       0.000       0.000       0.000       0.000       0.000       0.000    
   2   2.1000E-09  2.0000E-09  8.0000E-10  8.5000E-09   0.000       0.000       0.000       0.000       0.000       0.000    
   3   5.0000E-10  1.1000E-09  8.8000E-09  5.5000E-09   0.000       0.000       0.000       0.000       0.000       0.000    
   4   8.5000E-09  1.1000E-09  1.1000E-09  1.1000E-09  2.0000E-09   0.000       0.000       0.000       0.000       0.000    
   5   8.5000E-09  1.1000E-09  1.1000E-09  1.1000E-09  1.1000E-09   0.000       0.000       0.000       0.000       0.000    
   6   8.5000E-09  5.2000E-09  2.1000E-09  1.1000E-09  1.5000E-09   0.000       0.000       0.000       0.000       0.000    
   7   8.5000E-09  5.2000E-09  2.1000E-09  1.2000E-09  2.0000E-09   0.000       0.000       0.000       0.000       0.000    
   8   5.0000E-10  5.2000E-09  2.1000E-09  1.2000E-09  5.0000E-09   0.000       0.000       0.000       0.000       0.000    
   9   5.0000E-10  5.2000E-09  2.1000E-09  1.2000E-09  5.0000E-09   0.000       0.000       0.000       0.000       0.000    
  10   5.0000E-10  5.2000E-09  2.1000E-09  1.2000E-09  5.8000E-09   0.000       0.000       0.000       0.000       0.000    
  11   1.0000E-10  1.1000E-09  1.1000E-09  1.2000E-09  5.0000E-09   0.000       0.000       0.000       0.000       0.000    
  12   1.1000E-09  1.1000E-09  1.1000E-09  1.1000E-09  2.0000E-09   0.000       0.000       0.000       0.000       0.000    
  13   1.1000E-09  2.2000E-09  2.2000E-09  2.1000E-09  1.0000E-09   0.000       0.000       0.000       0.000       0.000    
  14   2.0000E-10  5.5000E-09  5.5000E-09  5.2000E-09  1.0000E-09   0.000       0.000       0.000       0.000       0.000    
  15    0.000      8.8000E-09  8.8000E-09   0.000       0.000       0.000       0.000       0.000       0.000       0.000    

                  ET RATE =  5.000000E-10

 USING ET EXTINCTION DEPTH FROM PREVIOUS STRESS PERIOD. CURRENT PERIOD IS:      28

 USING EXTINCTION WATER CONTENT FROM PREVIOUS STRESS PERIOD. CURRENT PERIOD IS:      28

 USING AIR ENTRY PRESSURE FROM PREVIOUS STRESS PERIOD. CURRENT PERIOD IS:      28

 USING ROOT PRESSURE HEAD FROM PREVIOUS STRESS PERIOD. CURRENT PERIOD IS:      28

 USING ROOT ACTIVITY FROM PREVIOUS STRESS PERIOD. CURRENT PERIOD IS:      28

 PROCESSING AG STRESS PERIOD DATA

 READING AG STRESS PERIOD DATA

 READING IRRIGATION SEGMENT

 READING IRRIGATION WELL

 READING SUPPLEMENTAL WELL

 END PROCESSING AG STRESS PERIOD DATA OPTIONS
 
 SOLVING FOR HEAD 
                                                   Max.-Head-Change                         Max.-Flux-Residual
  Residual-Control   Outer-Iter.   Inner-Iter.     Column Row Layer    Maximum-Head-Change  Column Row Layer    Maximum-Flux-Residual          L2-NORM 
          0                 1           2             4    7     1       0.6992785841E-02       4   13    1         0.3857657671E+00      0.1206653530E+01
          0                 2           2             3   13     1       0.8058502165E-03       3   13    1         0.4724959785E-01      0.1222581098E+00
          0                 3           1             3   13     1       0.1027118345E-03       3   13    1         0.5889450763E-02      0.9817296047E-02
          0                 4           1             3   13     1       0.1329883874E-04       3   13    1         0.7703041474E-03      0.8306619166E-03

    ------------------------------------------------
       NWT REQUIRED            4 OUTER ITERATIONS 
       AND A TOTAL OF          6 INNER ITERATIONS.
    ------------------------------------------------

 NO OUTPUT CONTROL FOR STRESS PERIOD   28   TIME STEP    1
 
 SOLVING FOR HEAD 
                                                   Max.-Head-Change                         Max.-Flux-Residual
  Residual-Control   Outer-Iter.   Inner-Iter.     Column Row Layer    Maximum-Head-Change  Column Row Layer    Maximum-Flux-Residual          L2-NORM 
          0                 1           2             4   13     1       0.9982049693E-02       4   13    1         0.5746729390E+00      0.1439874798E+01
          0                 2           2             3   13     1       0.1182693135E-02       3   13    1         0.6864118522E-01      0.1390419276E+00
          0                 3           2             3   13     1       0.1531979589E-03       3   13    1         0.8802190284E-02      0.1253263118E-01
          0                 4           1             3   13     1       0.1986064453E-04       3   13    1         0.1146247643E-02      0.1261998996E-02

    ------------------------------------------------
       NWT REQUIRED            4 OUTER ITERATIONS 
       AND A TOTAL OF          7 INNER ITERATIONS.
    ------------------------------------------------

 NO OUTPUT CONTROL FOR STRESS PERIOD   28   TIME STEP    2
 
 SOLVING FOR HEAD 
                                                   Max.-Head-Change                         Max.-Flux-Residual
  Residual-Control   Outer-Iter.   Inner-Iter.     Column Row Layer    Maximum-Head-Change  Column Row Layer    Maximum-Flux-Residual          L2-NORM 
          0                 1           2             4   13     1       0.9563249135E-02       4   13    1         0.5507006994E+00      0.1387490930E+01
          0                 2           2             4   13     1       0.1216914403E-02       4   13    1         0.7035616872E-01      0.1487216941E+00
          0                 3           2             4   13     1       0.1545524162E-03       4   13    1         0.8904995460E-02      0.1454513235E-01
          0                 4           1             4   13     1       0.1967053837E-04       4   13    1         0.1134463412E-02      0.1599977715E-02

    ------------------------------------------------
       NWT REQUIRED            4 OUTER ITERATIONS 
       AND A TOTAL OF          7 INNER ITERATIONS.
    ------------------------------------------------

 NO OUTPUT CONTROL FOR STRESS PERIOD   28   TIME STEP    3
 
 SOLVING FOR HEAD 
                                                   Max.-Head-Change                         Max.-Flux-Residual
  Residual-Control   Outer-Iter.   Inner-Iter.     Column Row Layer    Maximum-Head-Change  Column Row Layer    Maximum-Flux-Residual          L2-NORM 
          0                 1           2             2   13     1       0.8467563348E-02       4   13    1         0.4829006249E+00      0.1324211183E+01
          0                 2           2             4   13     1       0.1068866749E-02       4   13    1         0.6181832951E-01      0.1404169047E+00
          0                 3           2             4   13     1       0.1362072673E-03       4   13    1         0.7844308896E-02      0.1334510816E-01
          0                 4           1             4   13     1       0.1738080954E-04       4   13    1         0.1002330928E-02      0.1426507165E-02

    ------------------------------------------------
       NWT REQUIRED            4 OUTER ITERATIONS 
       AND A TOTAL OF          7 INNER ITERATIONS.
    ------------------------------------------------

 NO OUTPUT CONTROL FOR STRESS PERIOD   28   TIME STEP    4
 
 SOLVING FOR HEAD 
                                                   Max.-Head-Change                         Max.-Flux-Residual
  Residual-Control   Outer-Iter.   Inner-Iter.     Column Row Layer    Maximum-Head-Change  Column Row Layer    Maximum-Flux-Residual          L2-NORM 
          0                 1           2             2   13     1       0.7827624686E-02       2   13    1         0.4424272941E+00      0.1270010338E+01
          0                 2           2             4   13     1       0.9399810330E-03       4   13    1         0.5438349939E-01      0.1332501724E+00
          0                 3           2             4   13     1       0.1194342104E-03       4   13    1         0.6875160889E-02      0.1227242252E-01
          0                 4           1             4   13     1       0.1519657041E-04       4   13    1         0.8762744937E-03      0.1267295016E-02

    ------------------------------------------------
       NWT REQUIRED            4 OUTER ITERATIONS 
       AND A TOTAL OF          7 INNER ITERATIONS.
    ------------------------------------------------

 NO OUTPUT CONTROL FOR STRESS PERIOD   28   TIME STEP    5
 
 SOLVING FOR HEAD 
                                                   Max.-Head-Change                         Max.-Flux-Residual
  Residual-Control   Outer-Iter.   Inner-Iter.     Column Row Layer    Maximum-Head-Change  Column Row Layer    Maximum-Flux-Residual          L2-NORM 
          0                 1           2             2   13     1       0.7233976672E-02       2   13    1         0.4088973929E+00      0.1223534686E+01
          0                 2           2             4   13     1       0.8245253377E-03       4   13    1         0.4772336570E-01      0.1270877761E+00
          0                 3           1             4   13     1       0.1048000156E-03       4   13    1         0.6029688433E-02      0.1135473550E-01
          0                 4           1             3   13     1       0.1346633586E-04       3   13    1         0.7724409861E-03      0.1130923500E-02

    ------------------------------------------------
       NWT REQUIRED            4 OUTER ITERATIONS 
       AND A TOTAL OF          6 INNER ITERATIONS.
    ------------------------------------------------

 NO OUTPUT CONTROL FOR STRESS PERIOD   28   TIME STEP    6
 
 SOLVING FOR HEAD 
                                                   Max.-Head-Change                         Max.-Flux-Residual
  Residual-Control   Outer-Iter.   Inner-Iter.     Column Row Layer    Maximum-Head-Change  Column Row Layer    Maximum-Flux-Residual          L2-NORM 
          0                 1           2             2   13     1       0.6683732084E-02       2   13    1         0.3778107840E+00      0.1183555255E+01
          0                 2           2             4   13     1       0.7279486353E-03       4   13    1         0.4215339299E-01      0.1219507243E+00
          0                 3           1             4   13     1       0.9280714841E-04       4   13    1         0.5337085914E-02      0.1060698735E-01

    ------------------------------------------------
       NWT REQUIRED            3 OUTER ITERATIONS 
       AND A TOTAL OF          5 INNER ITERATIONS.
    ------------------------------------------------

 NO OUTPUT CONTROL FOR STRESS PERIOD   28   TIME STEP    7
 
 SOLVING FOR HEAD 
                                                   Max.-Head-Change                         Max.-Flux-Residual
  Residual-Control   Outer-Iter.   Inner-Iter.     Column Row Layer    Maximum-Head-Change  Column Row Layer    Maximum-Flux-Residual          L2-NORM 
          0                 1           2             4    7     1       0.6611126992E-02       2   13    1         0.3489871878E+00      0.1149045002E+01
          0                 2           2             4    7     1      -0.6428362191E-03       4   13    1         0.3718857279E-01      0.1174970176E+00
          0                 3           1             4   13     1       0.8184480776E-04       4   13    1         0.4704178897E-02      0.9943670583E-02

    ------------------------------------------------
       NWT REQUIRED            3 OUTER ITERATIONS 
       AND A TOTAL OF          5 INNER ITERATIONS.
    ------------------------------------------------

 NO OUTPUT CONTROL FOR STRESS PERIOD   28   TIME STEP    8
 
 SOLVING FOR HEAD 
                                                   Max.-Head-Change                         Max.-Flux-Residual
  Residual-Control   Outer-Iter.   Inner-Iter.     Column Row Layer    Maximum-Head-Change  Column Row Layer    Maximum-Flux-Residual          L2-NORM 
          0                 1           2             4    7     1       0.6559920137E-02       4    7    1         0.3435252952E+00      0.1119110712E+01
          0                 2           2             4    7     1      -0.6378564134E-03       4    7    1        -0.3435258253E-01      0.1136535380E+00
          0                 3           1             3   13     1       0.7324352312E-04       3   13    1         0.4176565383E-02      0.9367265950E-02

    ------------------------------------------------
       NWT REQUIRED            3 OUTER ITERATIONS 
       AND A TOTAL OF          5 INNER ITERATIONS.
    ------------------------------------------------

 NO OUTPUT CONTROL FOR STRESS PERIOD   28   TIME STEP    9
 
 SOLVING FOR HEAD 
                                                   Max.-Head-Change                         Max.-Flux-Residual
  Residual-Control   Outer-Iter.   Inner-Iter.     Column Row Layer    Maximum-Head-Change  Column Row Layer    Maximum-Flux-Residual          L2-NORM 
          0                 1           2             4    7     1       0.6509429743E-02       4    7    1         0.3408628333E+00      0.1093019349E+01
          0                 2           2             4    7     1      -0.6329463071E-03       4    7    1        -0.3408633527E-01      0.1103579902E+00
          0                 3           1             3   13     1       0.6566434077E-04       3   13    1         0.3744074818E-02      0.8885655052E-02

    ------------------------------------------------
       NWT REQUIRED            3 OUTER ITERATIONS 
       AND A TOTAL OF          5 INNER ITERATIONS.
    ------------------------------------------------

 NO OUTPUT CONTROL FOR STRESS PERIOD   28   TIME STEP   10
 
 SOLVING FOR HEAD 
                                                   Max.-Head-Change                         Max.-Flux-Residual
  Residual-Control   Outer-Iter.   Inner-Iter.     Column Row Layer    Maximum-Head-Change  Column Row Layer    Maximum-Flux-Residual          L2-NORM 
          0                 1           2             4    7     1       0.6459628922E-02       4    7    1         0.3382375183E+00      0.1070150409E+01
          0                 2           2             4    7     1      -0.6281032838E-03       4    7    1        -0.3382380275E-01      0.1075292895E+00
          0                 3           1             3   13     1       0.5882629747E-04       3   13    1         0.3353583726E-02      0.8482042680E-02

    ------------------------------------------------
       NWT REQUIRED            3 OUTER ITERATIONS 
       AND A TOTAL OF          5 INNER ITERATIONS.
    ------------------------------------------------

 NO OUTPUT CONTROL FOR STRESS PERIOD   28   TIME STEP   11
 
 SOLVING FOR HEAD 
                                                   Max.-Head-Change                         Max.-Flux-Residual
  Residual-Control   Outer-Iter.   Inner-Iter.     Column Row Layer    Maximum-Head-Change  Column Row Layer    Maximum-Flux-Residual          L2-NORM 
          0                 1           2             4    7     1       0.6410501766E-02       4    7    1         0.3356479563E+00      0.1049987810E+01
          0                 2           2             4    7     1      -0.6233258031E-03       4    7    1        -0.3356484554E-01      0.1050763040E+00
          0                 3           1             3   13     1       0.5297556839E-04       3   13    1         0.3019753272E-02      0.8140159304E-02

    ------------------------------------------------
       NWT REQUIRED            3 OUTER ITERATIONS 
       AND A TOTAL OF          5 INNER ITERATIONS.
    ------------------------------------------------

 NO OUTPUT CONTROL FOR STRESS PERIOD   28   TIME STEP   12
 
 SOLVING FOR HEAD 
                                                   Max.-Head-Change                         Max.-Flux-Residual
  Residual-Control   Outer-Iter.   Inner-Iter.     Column Row Layer    Maximum-Head-Change  Column Row Layer    Maximum-Flux-Residual          L2-NORM 
          0                 1           2             4    7     1       0.6362034783E-02       4    7    1         0.3330933220E+00      0.1032106145E+01
          0                 2           2             4    7     1      -0.6186125424E-03       4    7    1        -0.3330938115E-01      0.1029272976E+00
          0                 3           1             3   13     1       0.4760258303E-04       3   13    1         0.2713071911E-02      0.7845077223E-02

    ------------------------------------------------
       NWT REQUIRED            3 OUTER ITERATIONS 
       AND A TOTAL OF          5 INNER ITERATIONS.
    ------------------------------------------------

 NO OUTPUT CONTROL FOR STRESS PERIOD   28   TIME STEP   13
 
 SOLVING FOR HEAD 
                                                   Max.-Head-Change                         Max.-Flux-Residual
  Residual-Control   Outer-Iter.   Inner-Iter.     Column Row Layer    Maximum-Head-Change  Column Row Layer    Maximum-Flux-Residual          L2-NORM 
          0                 1           2             4    7     1       0.6314345794E-02       4    7    1         0.3305802955E+00      0.1016144088E+01
          0                 2           2             4    7     1      -0.6139749700E-03       4    7    1        -0.3305807754E-01      0.1010342103E+00
          0                 3           1             3   13     1       0.4270854582E-04       3   13    1         0.2433660235E-02      0.7591125728E-02

    ------------------------------------------------
       NWT REQUIRED            3 OUTER ITERATIONS 
       AND A TOTAL OF          5 INNER ITERATIONS.
    ------------------------------------------------

 NO OUTPUT CONTROL FOR STRESS PERIOD   28   TIME STEP   14
 
 SOLVING FOR HEAD 
                                                   Max.-Head-Change                         Max.-Flux-Residual
  Residual-Control   Outer-Iter.   Inner-Iter.     Column Row Layer    Maximum-Head-Change  Column Row Layer    Maximum-Flux-Residual          L2-NORM 
          0                 1           2             4    7     1       0.6267270937E-02       4    7    1         0.3281002274E+00      0.1001795914E+01
          0                 2           2             4    7     1      -0.6093971286E-03       4    7    1        -0.3281006981E-01      0.9936004218E-01
          0                 3           1             4    7     1       0.4150525238E-04       4    7    1         0.2296705421E-02      0.7374912927E-02

    ------------------------------------------------
       NWT REQUIRED            3 OUTER ITERATIONS 
       AND A TOTAL OF          5 INNER ITERATIONS.
    ------------------------------------------------

 NO OUTPUT CONTROL FOR STRESS PERIOD   28   TIME STEP   15
 
 SOLVING FOR HEAD 
                                                   Max.-Head-Change                         Max.-Flux-Residual
  Residual-Control   Outer-Iter.   Inner-Iter.     Column Row Layer    Maximum-Head-Change  Column Row Layer    Maximum-Flux-Residual          L2-NORM 
          0                 1           2             4    7     1       0.6220935829E-02       4    7    1         0.3256593805E+00      0.9888264474E+00
          0                 2           2             4    7     1      -0.6048912618E-03       4    7    1        -0.3256598424E-01      0.9787237285E-01
          0                 3           1             4    7     1       0.4119837874E-04       4    7    1         0.2279619423E-02      0.7189825201E-02

    ------------------------------------------------
       NWT REQUIRED            3 OUTER ITERATIONS 
       AND A TOTAL OF          5 INNER ITERATIONS.
    ------------------------------------------------

 NO OUTPUT CONTROL FOR STRESS PERIOD   28   TIME STEP   16
 
 SOLVING FOR HEAD 
                                                   Max.-Head-Change                         Max.-Flux-Residual
  Residual-Control   Outer-Iter.   Inner-Iter.     Column Row Layer    Maximum-Head-Change  Column Row Layer    Maximum-Flux-Residual          L2-NORM 
          0                 1           2             4    7     1       0.6175049301E-02       4    7    1         0.3232421295E+00      0.9770188188E+00
          0                 2           2             4    7     1      -0.6004320039E-03       4    7    1        -0.3232425824E-01      0.9655130592E-01
          0                 3           1             4    7     1       0.4089467889E-04       4    7    1         0.2262698597E-02      0.7032574902E-02

    ------------------------------------------------
       NWT REQUIRED            3 OUTER ITERATIONS 
       AND A TOTAL OF          5 INNER ITERATIONS.
    ------------------------------------------------

 NO OUTPUT CONTROL FOR STRESS PERIOD   28   TIME STEP   17
 
 SOLVING FOR HEAD 
                                                   Max.-Head-Change                         Max.-Flux-Residual
  Residual-Control   Outer-Iter.   Inner-Iter.     Column Row Layer    Maximum-Head-Change  Column Row Layer    Maximum-Flux-Residual          L2-NORM 
          0                 1           2             4    7     1       0.6129852551E-02       4    7    1         0.3208627369E+00      0.9662089152E+00
          0                 2           2             4    7     1      -0.5960338804E-03       4    7    1        -0.3208631814E-01      0.9533592629E-01
          0                 3           1             4    7     1       0.4059514283E-04       4    7    1         0.2246042811E-02      0.6892157796E-02

    ------------------------------------------------
       NWT REQUIRED            3 OUTER ITERATIONS 
       AND A TOTAL OF          5 INNER ITERATIONS.
    ------------------------------------------------

 NO OUTPUT CONTROL FOR STRESS PERIOD   28   TIME STEP   18
 
 SOLVING FOR HEAD 
                                                   Max.-Head-Change                         Max.-Flux-Residual
  Residual-Control   Outer-Iter.   Inner-Iter.     Column Row Layer    Maximum-Head-Change  Column Row Layer    Maximum-Flux-Residual          L2-NORM 
          0                 1           2             4    7     1       0.6085341546E-02       4    7    1         0.3185194251E+00      0.9562421174E+00
          0                 2           2             4    7     1      -0.5917054428E-03       4    7    1        -0.3185198614E-01      0.9424247573E-01
          0                 3           1             4    7     1       0.4030035183E-04       4    7    1         0.2229639569E-02      0.6772063988E-02

    ------------------------------------------------
       NWT REQUIRED            3 OUTER ITERATIONS 
       AND A TOTAL OF          5 INNER ITERATIONS.
    ------------------------------------------------

 NO OUTPUT CONTROL FOR STRESS PERIOD   28   TIME STEP   19
 
 SOLVING FOR HEAD 
                                                   Max.-Head-Change                         Max.-Flux-Residual
  Residual-Control   Outer-Iter.   Inner-Iter.     Column Row Layer    Maximum-Head-Change  Column Row Layer    Maximum-Flux-Residual          L2-NORM 
          0                 1           2             4    7     1       0.6041223624E-02       4    7    1         0.3161967510E+00      0.9469985794E+00
          0                 2           2             4    7     1      -0.5874152461E-03       4    7    1        -0.3161971794E-01      0.9324184006E-01
          0                 3           1             4    7     1       0.4000816471E-04       4    7    1         0.2213380794E-02      0.6666703951E-02

    ------------------------------------------------
       NWT REQUIRED            3 OUTER ITERATIONS 
       AND A TOTAL OF          5 INNER ITERATIONS.
    ------------------------------------------------

 NO OUTPUT CONTROL FOR STRESS PERIOD   28   TIME STEP   20
 
 SOLVING FOR HEAD 
                                                   Max.-Head-Change                         Max.-Flux-Residual
  Residual-Control   Outer-Iter.   Inner-Iter.     Column Row Layer    Maximum-Head-Change  Column Row Layer    Maximum-Flux-Residual          L2-NORM 
          0                 1           2             4    7     1       0.5997766190E-02       4    7    1         0.3139092164E+00      0.9383902019E+00
          0                 2           2             4    7     1      -0.5831892923E-03       4    7    1        -0.3139096369E-01      0.9232296781E-01
          0                 3           1             4    7     1       0.3972035215E-04       4    7    1         0.2197367994E-02      0.6573751965E-02

    ------------------------------------------------
       NWT REQUIRED            3 OUTER ITERATIONS 
       AND A TOTAL OF          5 INNER ITERATIONS.
    ------------------------------------------------

 NO OUTPUT CONTROL FOR STRESS PERIOD   28   TIME STEP   21
 
 SOLVING FOR HEAD 
                                                   Max.-Head-Change                         Max.-Flux-Residual
  Residual-Control   Outer-Iter.   Inner-Iter.     Column Row Layer    Maximum-Head-Change  Column Row Layer    Maximum-Flux-Residual          L2-NORM 
          0                 1           2             4    7     1       0.5954944957E-02       4    7    1         0.3116559275E+00      0.9303183380E+00
          0                 2           2             4    7     1      -0.5790252183E-03       4    7    1        -0.3116563404E-01      0.9146859239E-01
          0                 3           1             4    7     1       0.3943675366E-04       4    7    1         0.2181594922E-02      0.6490142799E-02

    ------------------------------------------------
       NWT REQUIRED            3 OUTER ITERATIONS 
       AND A TOTAL OF          5 INNER ITERATIONS.
    ------------------------------------------------

 NO OUTPUT CONTROL FOR STRESS PERIOD   28   TIME STEP   22
 
 SOLVING FOR HEAD 
                                                   Max.-Head-Change                         Max.-Flux-Residual
  Residual-Control   Outer-Iter.   Inner-Iter.     Column Row Layer    Maximum-Head-Change  Column Row Layer    Maximum-Flux-Residual          L2-NORM 
          0                 1           2             4    7     1       0.5912476614E-02       4    7    1         0.3094208656E+00      0.9227283106E+00
          0                 2           2             4    7     1      -0.5748954736E-03       4    7    1        -0.3094212711E-01      0.9067362179E-01
          0                 3           1             4    7     1       0.3915549316E-04       4    7    1         0.2165949448E-02      0.6415703302E-02

    ------------------------------------------------
       NWT REQUIRED            3 OUTER ITERATIONS 
       AND A TOTAL OF          5 INNER ITERATIONS.
    ------------------------------------------------

 NO OUTPUT CONTROL FOR STRESS PERIOD   28   TIME STEP   23
 
 SOLVING FOR HEAD 
                                                   Max.-Head-Change                         Max.-Flux-Residual
  Residual-Control   Outer-Iter.   Inner-Iter.     Column Row Layer    Maximum-Head-Change  Column Row Layer    Maximum-Flux-Residual          L2-NORM 
          0                 1           2             4    7     1       0.5870633997E-02       4    7    1         0.3072188599E+00      0.9155513148E+00
          0                 2           2             4    7     1      -0.5708265881E-03       4    7    1        -0.3072192580E-01      0.8992779072E-01
          0                 3           1             4    7     1       0.3887837681E-04       4    7    1         0.2150535352E-02      0.6347287031E-02

    ------------------------------------------------
       NWT REQUIRED            3 OUTER ITERATIONS 
       AND A TOTAL OF          5 INNER ITERATIONS.
    ------------------------------------------------

 NO OUTPUT CONTROL FOR STRESS PERIOD   28   TIME STEP   24
 
 SOLVING FOR HEAD 
                                                   Max.-Head-Change                         Max.-Flux-Residual
  Residual-Control   Outer-Iter.   Inner-Iter.     Column Row Layer    Maximum-Head-Change  Column Row Layer    Maximum-Flux-Residual          L2-NORM 
          0                 1           2             4    7     1       0.5829393924E-02       4    7    1         0.3050492978E+00      0.9087410118E+00
          0                 2           2             4    7     1      -0.5668163147E-03       4    7    1        -0.3050496888E-01      0.8922646753E-01
          0                 3           1             4    7     1       0.3860525135E-04       4    7    1         0.2135348344E-02      0.6285494304E-02

    ------------------------------------------------
       NWT REQUIRED            3 OUTER ITERATIONS 
       AND A TOTAL OF          5 INNER ITERATIONS.
    ------------------------------------------------

 NO OUTPUT CONTROL FOR STRESS PERIOD   28   TIME STEP   25
 
 SOLVING FOR HEAD 
                                                   Max.-Head-Change                         Max.-Flux-Residual
  Residual-Control   Outer-Iter.   Inner-Iter.     Column Row Layer    Maximum-Head-Change  Column Row Layer    Maximum-Flux-Residual          L2-NORM 
          0                 1           2             4    7     1       0.5788473100E-02       4    7    1         0.3028962167E+00      0.9022588390E+00
          0                 2           2             4    7     1      -0.5628370800E-03       4    7    1        -0.3028966009E-01      0.8856339328E-01
          0                 3           1             4    7     1       0.3833424058E-04       4    7    1         0.2120276738E-02      0.6228759441E-02

    ------------------------------------------------
       NWT REQUIRED            3 OUTER ITERATIONS 
       AND A TOTAL OF          5 INNER ITERATIONS.
    ------------------------------------------------

 NO OUTPUT CONTROL FOR STRESS PERIOD   28   TIME STEP   26
 
 SOLVING FOR HEAD 
                                                   Max.-Head-Change                         Max.-Flux-Residual
  Residual-Control   Outer-Iter.   Inner-Iter.     Column Row Layer    Maximum-Head-Change  Column Row Layer    Maximum-Flux-Residual          L2-NORM 
          0                 1           2             4    7     1       0.5748409066E-02       4    7    1         0.3007892093E+00      0.8960653448E+00
          0                 2           2             4    7     1      -0.5589411971E-03       4    7    1        -0.3007895868E-01      0.8793370446E-01
          0                 3           1             4    7     1       0.3806890570E-04       4    7    1         0.2105527664E-02      0.6176819514E-02

    ------------------------------------------------
       NWT REQUIRED            3 OUTER ITERATIONS 
       AND A TOTAL OF          5 INNER ITERATIONS.
    ------------------------------------------------

 NO OUTPUT CONTROL FOR STRESS PERIOD   28   TIME STEP   27
 
 SOLVING FOR HEAD 
                                                   Max.-Head-Change                         Max.-Flux-Residual
  Residual-Control   Outer-Iter.   Inner-Iter.     Column Row Layer    Maximum-Head-Change  Column Row Layer    Maximum-Flux-Residual          L2-NORM 
          0                 1           2             4    7     1       0.5708362364E-02       4    7    1         0.2986823440E+00      0.8901176259E+00
          0                 2           2             4    7     1      -0.5550469819E-03       4    7    1        -0.2986827148E-01      0.8733269441E-01
          0                 3           1             4    7     1       0.3780368395E-04       4    7    1         0.2090779542E-02      0.6127392194E-02

    ------------------------------------------------
       NWT REQUIRED            3 OUTER ITERATIONS 
       AND A TOTAL OF          5 INNER ITERATIONS.
    ------------------------------------------------

 NO OUTPUT CONTROL FOR STRESS PERIOD   28   TIME STEP   28
 
 SOLVING FOR HEAD 
                                                   Max.-Head-Change                         Max.-Flux-Residual
  Residual-Control   Outer-Iter.   Inner-Iter.     Column Row Layer    Maximum-Head-Change  Column Row Layer    Maximum-Flux-Residual          L2-NORM 
          0                 1           2             4    7     1       0.5669160306E-02       4    7    1         0.2966206595E+00      0.8844037721E+00
          0                 2           2             4    7     1      -0.5512349281E-03       4    7    1        -0.2966210241E-01      0.8675814509E-01
          0                 3           1             4    7     1       0.3754405787E-04       4    7    1         0.2076347708E-02      0.6081506690E-02

    ------------------------------------------------
       NWT REQUIRED            3 OUTER ITERATIONS 
       AND A TOTAL OF          5 INNER ITERATIONS.
    ------------------------------------------------

 NO OUTPUT CONTROL FOR STRESS PERIOD   28   TIME STEP   29
 
 SOLVING FOR HEAD 
                                                   Max.-Head-Change                         Max.-Flux-Residual
  Residual-Control   Outer-Iter.   Inner-Iter.     Column Row Layer    Maximum-Head-Change  Column Row Layer    Maximum-Flux-Residual          L2-NORM 
          0                 1           2             4    7     1       0.5630231261E-02       4    7    1         0.2945732475E+00      0.8789018795E+00
          0                 2           2             4    7     1      -0.5474494209E-03       4    7    1        -0.2945736057E-01      0.8620697686E-01
          0                 3           1             4    7     1       0.3728623973E-04       4    7    1         0.2062015771E-02      0.6038371227E-02

    ------------------------------------------------
       NWT REQUIRED            3 OUTER ITERATIONS 
       AND A TOTAL OF          5 INNER ITERATIONS.
    ------------------------------------------------

 NO OUTPUT CONTROL FOR STRESS PERIOD   28   TIME STEP   30



 STREAM LISTING     PERIOD     28   STEP       30

 LAYER ROW COL. STREAM  RCH.  FLOW INTO     FLOW TO   FLOW OUT OF   OVRLND.     DIRECT     STREAM       STREAM     STREAM     STREAM   STREAMBED  STREAMBED
                SEG.NO.  NO.  STRM. RCH.    AQUIFER    STRM. RCH.    RUNOFF     PRECIP       ET          HEAD       DEPTH      WIDTH   CONDCTNC.   GRADIENT

   1    1    1     1     1    5.7748E+01  3.6407E-01   5.7384E+01  0.000E+00  0.000E+00  0.000E+00  1.09455E+03  1.498E+00  1.799E+01  8.095E-02  1.499E+00
   1    2    2     1     2    5.7384E+01  5.6377E-01   5.6820E+01  0.000E+00  0.000E+00  0.000E+00  1.08955E+03  1.492E+00  1.793E+01  1.255E-01  1.497E+00
   1    3    3     1     3    5.6820E+01  4.8075E-01   5.6340E+01  0.000E+00  0.000E+00  0.000E+00  1.08390E+03  1.485E+00  1.786E+01  1.072E-01  1.495E+00
   1    3    4     1     4    5.6340E+01  4.4266E-01   5.5897E+01  0.000E+00  0.000E+00  0.000E+00  1.07889E+03  1.480E+00  1.781E+01  9.882E-02  1.493E+00
   1    4    5     2     1    5.3897E+01  3.8302E-01   5.3514E+01  0.000E+00  0.000E+00  0.000E+00  1.07384E+03  1.911E+00  1.200E+01  7.800E-02  1.637E+00
   1    5    6     2     2    5.3514E+01  2.9420E-01   5.3220E+01  0.000E+00  0.000E+00  0.000E+00  1.06841E+03  1.903E+00  1.200E+01  6.000E-02  1.634E+00
   1    6    6     2     3    5.3220E+01  2.9382E-01   5.2926E+01  0.000E+00  0.000E+00  0.000E+00  1.06369E+03  1.897E+00  1.200E+01  6.000E-02  1.632E+00
   1    7    6     2     4    5.2926E+01  2.9344E-01   5.2633E+01  0.000E+00  0.000E+00  0.000E+00  1.05897E+03  1.891E+00  1.200E+01  6.000E-02  1.630E+00
   1    8    6     2     5    5.2633E+01  2.9306E-01   5.2339E+01  0.000E+00  0.000E+00  0.000E+00  1.05424E+03  1.884E+00  1.200E+01  6.000E-02  1.628E+00
   1    3    5     3     1    2.0000E+00  2.8252E-01   1.7175E+00  0.000E+00  0.000E+00  0.000E+00  1.07555E+03  1.909E+00  9.636E+00  7.227E-02  1.955E+00
   1    3    6     3     2    1.7175E+00  2.4905E-01   1.4684E+00  0.000E+00  0.000E+00  0.000E+00  1.07264E+03  1.727E+00  8.909E+00  6.682E-02  1.864E+00
   1    3    7     3     3    1.4684E+00  1.9718E-01   1.2712E+00  0.000E+00  0.000E+00  0.000E+00  1.06987E+03  1.555E+00  8.218E+00  5.547E-02  1.777E+00
   1    4    8     3     4    1.2712E+00  2.2567E-01   1.0456E+00  0.000E+00  0.000E+00  0.000E+00  1.06682E+03  1.364E+00  7.455E+00  6.709E-02  1.682E+00
   1    5    8     3     5    1.0456E+00  1.5790E-01   8.8768E-01  0.000E+00  0.000E+00  0.000E+00  1.06362E+03  1.164E+00  6.655E+00  4.991E-02  1.582E+00
   1    6    8     3     6    8.8768E-01  5.5980E-02   8.3170E-01  0.000E+00  0.000E+00  0.000E+00  1.06158E+03  1.036E+00  6.145E+00  1.844E-02  1.518E+00
   1    5   10     4     1    1.0000E+01  9.0919E-02   9.9091E+00  0.000E+00  0.000E+00  0.000E+00  1.07836E+03  6.368E-01  1.000E+01  2.500E-02  1.212E+00
   1    5    9     4     2    9.9091E+00  1.8158E-01   9.7275E+00  0.000E+00  0.000E+00  0.000E+00  1.07154E+03  6.315E-01  1.000E+01  5.000E-02  1.211E+00
   1    6    8     4     3    9.7275E+00  1.2689E-01   9.6006E+00  0.000E+00  0.000E+00  0.000E+00  1.06381E+03  6.256E-01  1.000E+01  3.500E-02  1.209E+00
   1    6    8     5     1    1.0432E+01  2.2686E-01   1.0205E+01  0.000E+00  0.000E+00  0.000E+00  1.05868E+03  6.790E-01  1.542E+01  6.166E-02  1.226E+00
   1    7    7     5     2    1.0205E+01  2.7894E-01   9.9265E+00  0.000E+00  0.000E+00  0.000E+00  1.05417E+03  6.732E-01  1.519E+01  7.594E-02  1.224E+00
   1    8    7     5     3    9.9265E+00  1.9221E-01   9.7343E+00  0.000E+00  0.000E+00  0.000E+00  1.04992E+03  6.676E-01  1.497E+01  5.241E-02  1.223E+00
   1    8    6     5     4    9.7343E+00  1.3577E-01   9.5985E+00  0.000E+00  0.000E+00  0.000E+00  1.04691E+03  6.637E-01  1.482E+01  3.706E-02  1.221E+00
   1    9    6     6     1    6.1938E+01  3.0608E-01   6.1632E+01  0.000E+00  0.000E+00  0.000E+00  1.04483E+03  2.101E+00  1.200E+01  6.000E-02  1.700E+00
   1   10    7     6     2    6.1632E+01  3.0571E-01   6.1326E+01  0.000E+00  0.000E+00  0.000E+00  1.04028E+03  2.095E+00  1.200E+01  6.000E-02  1.698E+00
   1   11    7     6     3    6.1326E+01  3.0533E-01   6.1021E+01  0.000E+00  0.000E+00  0.000E+00  1.03573E+03  2.089E+00  1.200E+01  6.000E-02  1.696E+00
   1   12    7     6     4    6.1021E+01  3.0496E-01   6.0716E+01  0.000E+00  0.000E+00  0.000E+00  1.03117E+03  2.083E+00  1.200E+01  6.000E-02  1.694E+00
   1   13    7     6     5    6.0716E+01  2.3154E-02   6.0693E+01  0.000E+00  0.000E+00  0.000E+00  1.02799E+03  2.079E+00  1.200E+01  2.400E-02  3.216E-01
   1   14    9     7     1    1.5000E+02  1.3415E+00   1.4866E+02  0.000E+00  0.000E+00  0.000E+00  1.03987E+03  2.288E+00  5.529E+01  5.593E-01  7.995E-01
   1   13    8     7     2    1.4866E+02  1.8523E+00   1.4681E+02  0.000E+00  0.000E+00  0.000E+00  1.03478E+03  2.279E+00  5.526E+01  6.148E-01  1.004E+00
   1   13    7     7     3    1.4681E+02  1.4889E+00   1.4532E+02  0.000E+00  0.000E+00  0.000E+00  1.02969E+03  2.270E+00  5.522E+01  5.584E-01  8.887E-01
   1   13    6     8     1    2.0601E+02  1.0924E+00   2.0492E+02  0.000E+00  0.000E+00  0.000E+00  1.02504E+03  3.170E+00  4.596E+01  4.683E-01  7.775E-01
   1   13    5     8     2    2.0492E+02  2.8392E-01   2.0463E+02  0.000E+00  0.000E+00  0.000E+00  1.01879E+03  3.166E+00  4.590E+01  4.678E-01  2.023E-01
   1   13    4     8     3    2.0463E+02 -2.2118E+00   2.0685E+02  0.000E+00  0.000E+00  0.000E+00  1.01255E+03  3.171E+00  4.598E+01  4.686E+00 -1.573E-01
   1   13    3     8     4    2.0685E+02 -3.5467E+00   2.1039E+02  0.000E+00  0.000E+00  0.000E+00  1.00631E+03  3.188E+00  4.622E+01  4.710E+00 -2.510E-01
   1   13    2     8     5    2.1039E+02 -2.4711E+00   2.1286E+02  0.000E+00  0.000E+00  0.000E+00  1.00008E+03  3.205E+00  4.647E+01  4.736E+00 -1.739E-01
   1   13    1     8     6    2.1286E+02 -1.8845E+00   2.1475E+02  0.000E+00  0.000E+00  0.000E+00  9.95092E+02  3.217E+00  4.665E+01  2.852E+00 -2.202E-01
   1    8    6     9     1    0.0000E+00  0.0000E+00   0.0000E+00  0.000E+00  0.000E+00  0.000E+00  1.07875E+03  0.000E+00  4.000E+00  0.000E+00  1.000E+00
   1    8    5     9     2    0.0000E+00  0.0000E+00   0.0000E+00  0.000E+00  0.000E+00  0.000E+00  1.07825E+03  0.000E+00  4.000E+00  0.000E+00  1.000E+00





UNSATURATED ZONE PACKAGE VOLUMETRIC BUDGET FOR  TIME STEP    30 STRESS PERIOD   28
  ------------------------------------------------------------------------------



     CUMULATIVE VOLUMES      L**3       RATES FOR THIS TIME STEP      L**3/T
     ------------------                 ------------------------

           IN:                                      IN:
           ---                                      ---
        INFILTRATION =  1279311469.8665          INFILTRATION =           4.4075

          OUT:                                     OUT:
          ----                                     ----
              UZF ET =  1004448630.8247                UZF ET =           0.7250
        UZF RECHARGE =     7013796.9302          UZF RECHARGE =           0.1261

            IN - OUT =   267849042.1116              IN - OUT =           3.5564

          STORAGE:                                 STORAGE:
          --------                                 --------
      STORAGE CHANGE =   267849732.0248        STORAGE CHANGE =           3.5564

 PERCENT DISCREPANCY IS DIFFERENCE BETWEEN IN-OUT MINUS CHANGE IN STORAGE
 DIVIDED BY THE AVERAGE OF IN AND OUT TIMES 100

 PERCENT DISCREPANCY =          -0.00     PERCENT DISCREPANCY =          -0.00






1
  VOLUMETRIC BUDGET FOR AGRICULTURAL FIELDS AT  END OF TIME STEP   30, STRESS PERIOD  28
  ------------------------------------------------------------------------------

     CUMULATIVE VOLUMES      L**3       RATES FOR THIS TIME STEP      L**3/T
     ------------------                 ------------------------

           IN:                                      IN:
           ---                                      ---
               AG WELLS  =   368416480.0000                 AG WELLS  =           0.0000
      DIVERSION SEGMENTS =   598044480.0000        DIVERSION SEGMENTS =           0.0000
           GW IRRIGATION =           0.0000             GW IRRIGATION =           0.0000
           SW IRRIGATION =           0.0000             SW IRRIGATION =           0.0000
        SYSTEM LOSSES GW =           0.0000          SYSTEM LOSSES GW =           0.0000
        SYSTEM LOSSES SW =           0.0000          SYSTEM LOSSES SW =           0.0000

                TOTAL IN =   966460928.0000                  TOTAL IN =           0.0000

          OUT:                                     OUT:
          ----                                     ----
               AG WELLS  =           0.0000                 AG WELLS  =           0.0000
      DIVERSION SEGMENTS =           0.0000        DIVERSION SEGMENTS =           0.0000
           GW IRRIGATION =   368416480.0000             GW IRRIGATION =           0.0000
           SW IRRIGATION =   598056384.0000             SW IRRIGATION =           0.0000
        SYSTEM LOSSES GW =           0.0000          SYSTEM LOSSES GW =           0.0000
        SYSTEM LOSSES SW =           0.0000          SYSTEM LOSSES SW =           0.0000

               TOTAL OUT =   966472832.0000                 TOTAL OUT =           0.0000

                IN - OUT =      -11904.0000                  IN - OUT =           0.0000

     PERCENT DISCREPANCY =          -0.00         PERCENT DISCREPANCY =           0.00



1
  VOLUMETRIC BUDGET FOR ENTIRE MODEL AT END OF TIME STEP   30, STRESS PERIOD  28
  ------------------------------------------------------------------------------

     CUMULATIVE VOLUMES      L**3       RATES FOR THIS TIME STEP      L**3/T
     ------------------                 ------------------------

           IN:                                      IN:
           ---                                      ---
             STORAGE     =   617448192.0000               STORAGE     =           1.5310
       CONSTANT HEAD     =           0.0000         CONSTANT HEAD     =           0.0000
     HEAD DEP BOUNDS     =    20320868.0000       HEAD DEP BOUNDS     =           0.2861
      STREAM LEAKAGE     =   847598336.0000        STREAM LEAKAGE     =          13.1145
        UZF RECHARGE     =     7013797.0000          UZF RECHARGE     =           0.1261
               GW ET     =           0.0000                 GW ET     =           0.0000
     SURFACE LEAKAGE     =           0.0000       SURFACE LEAKAGE     =           0.0000
           AG WELLS      =           0.0000             AG WELLS      =           0.0000

                TOTAL IN =  1492381184.0000                  TOTAL IN =          15.0578

          OUT:                                     OUT:
          ----                                     ----
             STORAGE     =   338175232.0000               STORAGE     =           4.6497
       CONSTANT HEAD     =           0.0000         CONSTANT HEAD     =           0.0000
     HEAD DEP BOUNDS     =    20661322.0000       HEAD DEP BOUNDS     =           0.2946
      STREAM LEAKAGE     =   763107072.0000        STREAM LEAKAGE     =          10.1141
        UZF RECHARGE     =           0.0000          UZF RECHARGE     =           0.0000
               GW ET     =     2023766.7500                 GW ET     =           0.0000
     SURFACE LEAKAGE     =           0.0000       SURFACE LEAKAGE     =           0.0000
           AG WELLS      =   368416480.0000             AG WELLS      =           0.0000

               TOTAL OUT =  1492383872.0000                 TOTAL OUT =          15.0585

                IN - OUT =       -2688.0000                  IN - OUT =      -6.7616E-04

     PERCENT DISCREPANCY =          -0.00         PERCENT DISCREPANCY =          -0.00






         TIME SUMMARY AT END OF TIME STEP   30 IN STRESS PERIOD   28
                    SECONDS     MINUTES      HOURS       DAYS        YEARS
                    -----------------------------------------------------------
   TIME STEP LENGTH  87667.      1461.1      24.352      1.0147     2.77799E-03
 STRESS PERIOD TIME 2.63000E+06  43833.      730.56      30.440     8.33397E-02
         TOTAL TIME 7.10967E+07 1.18494E+06  19749.      822.88      2.2529    
1
1
                            STRESS PERIOD NO.   29, LENGTH =   2630000.    
                            -----------------------------------------------

                              NUMBER OF TIME STEPS =    30

                               MULTIPLIER FOR DELT =     1.000

                            INITIAL TIME STEP SIZE =   87666.66    

 REUSING NON-PARAMETER GHB CELLS FROM LAST STRESS PERIOD

      2 GHB CELLS

 REUSING STREAM SEGMENT DATA FROM LAST STRESS PERIOD



            AREAL INFILTRATION RATE
 READING ON UNIT   19 WITH FORMAT: (10F4.0)            

            1           2           3           4           5           6           7           8           9          10
 ........................................................................................................................
   1   1.2000E-09   0.000       0.000       0.000       0.000       0.000       0.000       0.000       0.000       0.000    
   2   2.1000E-09  2.0000E-09  8.0000E-10  8.5000E-09   0.000       0.000       0.000       0.000       0.000       0.000    
   3   5.0000E-10  1.1000E-09  8.8000E-09  5.5000E-09   0.000       0.000       0.000       0.000       0.000       0.000    
   4   8.5000E-09  1.1000E-09  1.1000E-09  1.1000E-09  2.0000E-09   0.000       0.000       0.000       0.000       0.000    
   5   8.5000E-09  1.1000E-09  1.1000E-09  1.1000E-09  1.1000E-09   0.000       0.000       0.000       0.000       0.000    
   6   8.5000E-09  5.2000E-09  2.1000E-09  1.1000E-09  1.5000E-09   0.000       0.000       0.000       0.000       0.000    
   7   8.5000E-09  5.2000E-09  2.1000E-09  1.2000E-09  2.0000E-09   0.000       0.000       0.000       0.000       0.000    
   8   5.0000E-10  5.2000E-09  2.1000E-09  1.2000E-09  5.0000E-09   0.000       0.000       0.000       0.000       0.000    
   9   5.0000E-10  5.2000E-09  2.1000E-09  1.2000E-09  5.0000E-09   0.000       0.000       0.000       0.000       0.000    
  10   5.0000E-10  5.2000E-09  2.1000E-09  1.2000E-09  5.8000E-09   0.000       0.000       0.000       0.000       0.000    
  11   1.0000E-10  1.1000E-09  1.1000E-09  1.2000E-09  5.0000E-09   0.000       0.000       0.000       0.000       0.000    
  12   1.1000E-09  1.1000E-09  1.1000E-09  1.1000E-09  2.0000E-09   0.000       0.000       0.000       0.000       0.000    
  13   1.1000E-09  2.2000E-09  2.2000E-09  2.1000E-09  1.0000E-09   0.000       0.000       0.000       0.000       0.000    
  14   2.0000E-10  5.5000E-09  5.5000E-09  5.2000E-09  1.0000E-09   0.000       0.000       0.000       0.000       0.000    
  15    0.000      8.8000E-09  8.8000E-09   0.000       0.000       0.000       0.000       0.000       0.000       0.000    

                  ET RATE =  2.500000E-08

 USING ET EXTINCTION DEPTH FROM PREVIOUS STRESS PERIOD. CURRENT PERIOD IS:      29

 USING EXTINCTION WATER CONTENT FROM PREVIOUS STRESS PERIOD. CURRENT PERIOD IS:      29

 USING AIR ENTRY PRESSURE FROM PREVIOUS STRESS PERIOD. CURRENT PERIOD IS:      29

 USING ROOT PRESSURE HEAD FROM PREVIOUS STRESS PERIOD. CURRENT PERIOD IS:      29

 USING ROOT ACTIVITY FROM PREVIOUS STRESS PERIOD. CURRENT PERIOD IS:      29

 PROCESSING AG STRESS PERIOD DATA

 READING AG STRESS PERIOD DATA

 READING IRRIGATION SEGMENT

 READING IRRIGATION WELL

 READING SUPPLEMENTAL WELL

 END PROCESSING AG STRESS PERIOD DATA OPTIONS
 
 SOLVING FOR HEAD 
                                                   Max.-Head-Change                         Max.-Flux-Residual
  Residual-Control   Outer-Iter.   Inner-Iter.     Column Row Layer    Maximum-Head-Change  Column Row Layer    Maximum-Flux-Residual          L2-NORM 
          0                 1           2             4    7     1       0.5591842718E-02       4    7    1         0.2925547522E+00      0.8735790145E+00
          0                 2           2             4    7     1      -0.5437164899E-03       4    7    1        -0.2925551045E-01      0.8567604186E-01
          0                 3           1             4    7     1       0.3703200152E-04       4    7    1         0.2047886259E-02      0.5997457577E-02

    ------------------------------------------------
       NWT REQUIRED            3 OUTER ITERATIONS 
       AND A TOTAL OF          5 INNER ITERATIONS.
    ------------------------------------------------

 NO OUTPUT CONTROL FOR STRESS PERIOD   29   TIME STEP    1
 
 SOLVING FOR HEAD 
                                                   Max.-Head-Change                         Max.-Flux-Residual
  Residual-Control   Outer-Iter.   Inner-Iter.     Column Row Layer    Maximum-Head-Change  Column Row Layer    Maximum-Flux-Residual          L2-NORM 
          0                 1           2             4   13     1      -0.1121307577E-01       4   13    1        -0.6444431322E+00      0.1324228246E+01
          0                 2           2             2   13     1       0.9131633243E-03       2   13    1         0.5302007302E-01      0.1122779470E+00
          0                 3           1             2   13     1      -0.5934665953E-04       2   13    1        -0.3542272889E-02      0.7697666477E-02

    ------------------------------------------------
       NWT REQUIRED            3 OUTER ITERATIONS 
       AND A TOTAL OF          5 INNER ITERATIONS.
    ------------------------------------------------

 NO OUTPUT CONTROL FOR STRESS PERIOD   29   TIME STEP    2
 
 SOLVING FOR HEAD 
                                                   Max.-Head-Change                         Max.-Flux-Residual
  Residual-Control   Outer-Iter.   Inner-Iter.     Column Row Layer    Maximum-Head-Change  Column Row Layer    Maximum-Flux-Residual          L2-NORM 
          0                 1           2             4   13     1      -0.1285492718E-01       4   13    1        -0.7375716269E+00      0.1461985198E+01
          0                 2           2             4   13     1       0.1239299060E-02       4   13    1         0.7310981645E-01      0.1425206665E+00
          0                 3           1             4   13     1      -0.8335255160E-04       4   13    1        -0.5055634147E-02      0.9714542678E-02

    ------------------------------------------------
       NWT REQUIRED            3 OUTER ITERATIONS 
       AND A TOTAL OF          5 INNER ITERATIONS.
    ------------------------------------------------

 NO OUTPUT CONTROL FOR STRESS PERIOD   29   TIME STEP    3
 
 SOLVING FOR HEAD 
                                                   Max.-Head-Change                         Max.-Flux-Residual
  Residual-Control   Outer-Iter.   Inner-Iter.     Column Row Layer    Maximum-Head-Change  Column Row Layer    Maximum-Flux-Residual          L2-NORM 
          0                 1           2             4   13     1      -0.1164953897E-01       4   13    1        -0.6680802334E+00      0.1378455369E+01
          0                 2           2             4   13     1       0.1122975708E-02       4   13    1         0.6621466294E-01      0.1343798650E+00
          0                 3           1             4   13     1      -0.7551403520E-04       4   13    1        -0.4577891184E-02      0.9168031032E-02

    ------------------------------------------------
       NWT REQUIRED            3 OUTER ITERATIONS 
       AND A TOTAL OF          5 INNER ITERATIONS.
    ------------------------------------------------

 NO OUTPUT CONTROL FOR STRESS PERIOD   29   TIME STEP    4
 
 SOLVING FOR HEAD 
                                                   Max.-Head-Change                         Max.-Flux-Residual
  Residual-Control   Outer-Iter.   Inner-Iter.     Column Row Layer    Maximum-Head-Change  Column Row Layer    Maximum-Flux-Residual          L2-NORM 
          0                 1           2             4   13     1      -0.1056271669E-01       4   13    1        -0.6054452250E+00      0.1303724436E+01
          0                 2           2             4   13     1       0.1018095857E-02       4   13    1         0.5999991223E-01      0.1271022874E+00
          0                 3           1             4   13     1      -0.6845360597E-04       4   13    1        -0.4147728362E-02      0.8680896829E-02

    ------------------------------------------------
       NWT REQUIRED            3 OUTER ITERATIONS 
       AND A TOTAL OF          5 INNER ITERATIONS.
    ------------------------------------------------

 NO OUTPUT CONTROL FOR STRESS PERIOD   29   TIME STEP    5
 
 SOLVING FOR HEAD 
                                                   Max.-Head-Change                         Max.-Flux-Residual
  Residual-Control   Outer-Iter.   Inner-Iter.     Column Row Layer    Maximum-Head-Change  Column Row Layer    Maximum-Flux-Residual          L2-NORM 
          0                 1           2             4   13     1      -0.9586173564E-02       4   13    1        -0.5489688177E+00      0.1250347588E+01
          0                 2           2             4   13     1       0.9238845645E-03       4   13    1         0.5439757978E-01      0.1219202268E+00
          0                 3           1             4   13     1      -0.6211196956E-04       4   13    1        -0.3759974652E-02      0.8334373517E-02

    ------------------------------------------------
       NWT REQUIRED            3 OUTER ITERATIONS 
       AND A TOTAL OF          5 INNER ITERATIONS.
    ------------------------------------------------

 NO OUTPUT CONTROL FOR STRESS PERIOD   29   TIME STEP    6
 
 SOLVING FOR HEAD 
                                                   Max.-Head-Change                         Max.-Flux-Residual
  Residual-Control   Outer-Iter.   Inner-Iter.     Column Row Layer    Maximum-Head-Change  Column Row Layer    Maximum-Flux-Residual          L2-NORM 
          0                 1           2             4   13     1      -0.8703116564E-02       4   13    1        -0.4982176355E+00      0.1185679087E+01
          0                 2           2             4   13     1       0.8386852807E-03       4   13    1         0.4936298552E-01      0.1156292367E+00
          0                 3           1             4   13     1      -0.5637516956E-04       4   13    1        -0.3411430642E-02      0.7913194510E-02

    ------------------------------------------------
       NWT REQUIRED            3 OUTER ITERATIONS 
       AND A TOTAL OF          5 INNER ITERATIONS.
    ------------------------------------------------

 NO OUTPUT CONTROL FOR STRESS PERIOD   29   TIME STEP    7
 
 SOLVING FOR HEAD 
                                                   Max.-Head-Change                         Max.-Flux-Residual
  Residual-Control   Outer-Iter.   Inner-Iter.     Column Row Layer    Maximum-Head-Change  Column Row Layer    Maximum-Flux-Residual          L2-NORM 
          0                 1           2             4   13     1      -0.7904461419E-02       4   13    1        -0.4523230407E+00      0.1128579801E+01
          0                 2           2             4   13     1       0.7616533841E-03       4   13    1         0.4481160131E-01      0.1100805968E+00
          0                 3           1             4   13     1      -0.5119344578E-04       4   13    1        -0.3096649298E-02      0.7542964843E-02

    ------------------------------------------------
       NWT REQUIRED            3 OUTER ITERATIONS 
       AND A TOTAL OF          5 INNER ITERATIONS.
    ------------------------------------------------

 NO OUTPUT CONTROL FOR STRESS PERIOD   29   TIME STEP    8
 
 SOLVING FOR HEAD 
                                                   Max.-Head-Change                         Max.-Flux-Residual
  Residual-Control   Outer-Iter.   Inner-Iter.     Column Row Layer    Maximum-Head-Change  Column Row Layer    Maximum-Flux-Residual          L2-NORM 
          0                 1           2             2   13     1      -0.7228473944E-02       4   13    1        -0.4108230226E+00      0.1078194134E+01
          0                 2           2             4   13     1       0.6916285277E-03       4   13    1         0.4069537012E-01      0.1041834959E+00
          0                 3           1             4   13     1      -0.4646555092E-04       4   13    1        -0.2810905794E-02      0.7149233789E-02

    ------------------------------------------------
       NWT REQUIRED            3 OUTER ITERATIONS 
       AND A TOTAL OF          5 INNER ITERATIONS.
    ------------------------------------------------

 NO OUTPUT CONTROL FOR STRESS PERIOD   29   TIME STEP    9
 
 SOLVING FOR HEAD 
                                                   Max.-Head-Change                         Max.-Flux-Residual
  Residual-Control   Outer-Iter.   Inner-Iter.     Column Row Layer    Maximum-Head-Change  Column Row Layer    Maximum-Flux-Residual          L2-NORM 
          0                 1           2             2   13     1      -0.6700523999E-02       2   13    1        -0.3765836208E+00      0.1034442276E+01
          0                 2           2             4   13     1       0.6291159920E-03       4   13    1         0.3697433579E-01      0.1009345536E+00
          0                 3           1             4   13     1      -0.4225811846E-04       4   13    1        -0.2553402055E-02      0.6932683950E-02

    ------------------------------------------------
       NWT REQUIRED            3 OUTER ITERATIONS 
       AND A TOTAL OF          5 INNER ITERATIONS.
    ------------------------------------------------

 NO OUTPUT CONTROL FOR STRESS PERIOD   29   TIME STEP   10
 
 SOLVING FOR HEAD 
                                                   Max.-Head-Change                         Max.-Flux-Residual
  Residual-Control   Outer-Iter.   Inner-Iter.     Column Row Layer    Maximum-Head-Change  Column Row Layer    Maximum-Flux-Residual          L2-NORM 
          0                 1           2             2   13     1      -0.6211437104E-02       2   13    1        -0.3490559378E+00      0.9971749076E+00
          0                 2           2             2   13     1       0.5792936127E-03       4   13    1         0.3361496003E-01      0.9732157852E-01
          0                 3           1             4   13     1      -0.3845329776E-04       4   13    1        -0.2322031012E-02      0.6693380000E-02

    ------------------------------------------------
       NWT REQUIRED            3 OUTER ITERATIONS 
       AND A TOTAL OF          5 INNER ITERATIONS.
    ------------------------------------------------

 NO OUTPUT CONTROL FOR STRESS PERIOD   29   TIME STEP   11
 
 SOLVING FOR HEAD 
                                                   Max.-Head-Change                         Max.-Flux-Residual
  Residual-Control   Outer-Iter.   Inner-Iter.     Column Row Layer    Maximum-Head-Change  Column Row Layer    Maximum-Flux-Residual          L2-NORM 
          0                 1           2             2   13     1      -0.5758605069E-02       2   13    1        -0.3235705399E+00      0.9639906484E+00
          0                 2           2             2   13     1       0.5371845388E-03       2   13    1         0.3102554095E-01      0.9410601496E-01
          0                 3           1             4   13     1      -0.3498845065E-04       4   13    1        -0.2111402819E-02      0.6479409610E-02

    ------------------------------------------------
       NWT REQUIRED            3 OUTER ITERATIONS 
       AND A TOTAL OF          5 INNER ITERATIONS.
    ------------------------------------------------

 NO OUTPUT CONTROL FOR STRESS PERIOD   29   TIME STEP   12
 
 SOLVING FOR HEAD 
                                                   Max.-Head-Change                         Max.-Flux-Residual
  Residual-Control   Outer-Iter.   Inner-Iter.     Column Row Layer    Maximum-Head-Change  Column Row Layer    Maximum-Flux-Residual          L2-NORM 
          0                 1           2             2   13     1      -0.5339323204E-02       2   13    1        -0.2999750113E+00      0.9344409402E+00
          0                 2           2             4    7     1      -0.5007385539E-03       2   13    1         0.2877030981E-01      0.9124504454E-01
          0                 3           1             4    7     1       0.3410467360E-04       4   13    1        -0.1921765133E-02      0.6289167474E-02

    ------------------------------------------------
       NWT REQUIRED            3 OUTER ITERATIONS 
       AND A TOTAL OF          5 INNER ITERATIONS.
    ------------------------------------------------

 NO OUTPUT CONTROL FOR STRESS PERIOD   29   TIME STEP   13
 
 SOLVING FOR HEAD 
                                                   Max.-Head-Change                         Max.-Flux-Residual
  Residual-Control   Outer-Iter.   Inner-Iter.     Column Row Layer    Maximum-Head-Change  Column Row Layer    Maximum-Flux-Residual          L2-NORM 
          0                 1           2             4    7     1       0.5114512777E-02       2   13    1        -0.2781290426E+00      0.9080874778E+00
          0                 2           2             4    7     1      -0.4973084219E-03       4    7    1        -0.2675844264E-01      0.8869332008E-01
          0                 3           1             4    7     1       0.3387104608E-04       4    7    1         0.1873091510E-02      0.6119602683E-02

    ------------------------------------------------
       NWT REQUIRED            3 OUTER ITERATIONS 
       AND A TOTAL OF          5 INNER ITERATIONS.
    ------------------------------------------------

 NO OUTPUT CONTROL FOR STRESS PERIOD   29   TIME STEP   14
 
 SOLVING FOR HEAD 
                                                   Max.-Head-Change                         Max.-Flux-Residual
  Residual-Control   Outer-Iter.   Inner-Iter.     Column Row Layer    Maximum-Head-Change  Column Row Layer    Maximum-Flux-Residual          L2-NORM 
          0                 1           2             4    7     1       0.5079583383E-02       4    7    1         0.2657548903E+00      0.8845659263E+00
          0                 2           2             4    7     1      -0.4939122118E-03       4    7    1        -0.2657551776E-01      0.8641855158E-01
          0                 3           1             4    7     1       0.3363973014E-04       4    7    1         0.1860286770E-02      0.5968904847E-02

    ------------------------------------------------
       NWT REQUIRED            3 OUTER ITERATIONS 
       AND A TOTAL OF          5 INNER ITERATIONS.
    ------------------------------------------------

 NO OUTPUT CONTROL FOR STRESS PERIOD   29   TIME STEP   15
 
 SOLVING FOR HEAD 
                                                   Max.-Head-Change                         Max.-Flux-Residual
  Residual-Control   Outer-Iter.   Inner-Iter.     Column Row Layer    Maximum-Head-Change  Column Row Layer    Maximum-Flux-Residual          L2-NORM 
          0                 1           2             4    7     1       0.5045002740E-02       4    7    1         0.2639437564E+00      0.8635365396E+00
          0                 2           2             4    7     1      -0.4905498971E-03       4    7    1        -0.2639440394E-01      0.8439205866E-01
          0                 3           1             4    7     1       0.3341072295E-04       4    7    1         0.1847608796E-02      0.5835234047E-02

    ------------------------------------------------
       NWT REQUIRED            3 OUTER ITERATIONS 
       AND A TOTAL OF          5 INNER ITERATIONS.
    ------------------------------------------------

 NO OUTPUT CONTROL FOR STRESS PERIOD   29   TIME STEP   16
 
 SOLVING FOR HEAD 
                                                   Max.-Head-Change                         Max.-Flux-Residual
  Residual-Control   Outer-Iter.   Inner-Iter.     Column Row Layer    Maximum-Head-Change  Column Row Layer    Maximum-Flux-Residual          L2-NORM 
          0                 1           2             4    7     1       0.5010501296E-02       4    7    1         0.2621359429E+00      0.8446880296E+00
          0                 2           2             4    7     1      -0.4871952533E-03       4    7    1        -0.2621362214E-01      0.8256280236E-01
          0                 3           1             4    7     1       0.3318223952E-04       4    7    1         0.1834954064E-02      0.5713006489E-02

    ------------------------------------------------
       NWT REQUIRED            3 OUTER ITERATIONS 
       AND A TOTAL OF          5 INNER ITERATIONS.
    ------------------------------------------------

 NO OUTPUT CONTROL FOR STRESS PERIOD   29   TIME STEP   17
 
 SOLVING FOR HEAD 
                                                   Max.-Head-Change                         Max.-Flux-Residual
  Residual-Control   Outer-Iter.   Inner-Iter.     Column Row Layer    Maximum-Head-Change  Column Row Layer    Maximum-Flux-Residual          L2-NORM 
          0                 1           2             4    7     1       0.4976625368E-02       4    7    1         0.2603617650E+00      0.8277421565E+00
          0                 2           2             4    7     1      -0.4839014132E-03       4    7    1        -0.2603620395E-01      0.8092386306E-01
          0                 3           1             4    7     1       0.3295789740E-04       4    7    1         0.1822534784E-02      0.5604707747E-02

    ------------------------------------------------
       NWT REQUIRED            3 OUTER ITERATIONS 
       AND A TOTAL OF          5 INNER ITERATIONS.
    ------------------------------------------------

 NO OUTPUT CONTROL FOR STRESS PERIOD   29   TIME STEP   18
 
 SOLVING FOR HEAD 
                                                   Max.-Head-Change                         Max.-Flux-Residual
  Residual-Control   Outer-Iter.   Inner-Iter.     Column Row Layer    Maximum-Head-Change  Column Row Layer    Maximum-Flux-Residual          L2-NORM 
          0                 1           2             4    7     1       0.4942826425E-02       4    7    1         0.2585904941E+00      0.8124782614E+00
          0                 2           2             4    7     1      -0.4806150446E-03       4    7    1        -0.2585907645E-01      0.7944993755E-01
          0                 3           1             4    7     1       0.3273406484E-04       4    7    1         0.1810135854E-02      0.5505848197E-02

    ------------------------------------------------
       NWT REQUIRED            3 OUTER ITERATIONS 
       AND A TOTAL OF          5 INNER ITERATIONS.
    ------------------------------------------------

 NO OUTPUT CONTROL FOR STRESS PERIOD   29   TIME STEP   19
 
 SOLVING FOR HEAD 
                                                   Max.-Head-Change                         Max.-Flux-Residual
  Residual-Control   Outer-Iter.   Inner-Iter.     Column Row Layer    Maximum-Head-Change  Column Row Layer    Maximum-Flux-Residual          L2-NORM 
          0                 1           2             4    7     1       0.4909376979E-02       4    7    1         0.2568379797E+00      0.7986810136E+00
          0                 2           2             4    7     1      -0.4773626312E-03       4    7    1        -0.2568382462E-01      0.7811536596E-01
          0                 3           1             4    7     1       0.3251254623E-04       4    7    1         0.1797868239E-02      0.5417125706E-02

    ------------------------------------------------
       NWT REQUIRED            3 OUTER ITERATIONS 
       AND A TOTAL OF          5 INNER ITERATIONS.
    ------------------------------------------------

 NO OUTPUT CONTROL FOR STRESS PERIOD   29   TIME STEP   20
 
 SOLVING FOR HEAD 
                                                   Max.-Head-Change                         Max.-Flux-Residual
  Residual-Control   Outer-Iter.   Inner-Iter.     Column Row Layer    Maximum-Head-Change  Column Row Layer    Maximum-Flux-Residual          L2-NORM 
          0                 1           2             4    7     1       0.4876007849E-02       4    7    1         0.2550888244E+00      0.7861680755E+00
          0                 2           2             4    7     1      -0.4741180069E-03       4    7    1        -0.2550890865E-01      0.7690635277E-01
          0                 3           1             4    7     1       0.3229155848E-04       4    7    1         0.1785624117E-02      0.5336718411E-02

    ------------------------------------------------
       NWT REQUIRED            3 OUTER ITERATIONS 
       AND A TOTAL OF          5 INNER ITERATIONS.
    ------------------------------------------------

 NO OUTPUT CONTROL FOR STRESS PERIOD   29   TIME STEP   21
 
 SOLVING FOR HEAD 
                                                   Max.-Head-Change                         Max.-Flux-Residual
  Residual-Control   Outer-Iter.   Inner-Iter.     Column Row Layer    Maximum-Head-Change  Column Row Layer    Maximum-Flux-Residual          L2-NORM 
          0                 1           2             4    7     1       0.4843263088E-02       4    7    1         0.2533733634E+00      0.7747740598E+00
          0                 2           2             4    7     1      -0.4709340879E-03       4    7    1        -0.2533736218E-01      0.7580439587E-01
          0                 3           1             4    7     1       0.3207470518E-04       4    7    1         0.1773615852E-02      0.5263024707E-02

    ------------------------------------------------
       NWT REQUIRED            3 OUTER ITERATIONS 
       AND A TOTAL OF          5 INNER ITERATIONS.
    ------------------------------------------------

 NO OUTPUT CONTROL FOR STRESS PERIOD   29   TIME STEP   22
 
 SOLVING FOR HEAD 
                                                   Max.-Head-Change                         Max.-Flux-Residual
  Residual-Control   Outer-Iter.   Inner-Iter.     Column Row Layer    Maximum-Head-Change  Column Row Layer    Maximum-Flux-Residual          L2-NORM 
          0                 1           2             4    7     1       0.4810591640E-02       4    7    1         0.2516607477E+00      0.7643710597E+00
          0                 2           2             4    7     1      -0.4677572804E-03       4    7    1        -0.2516610023E-01      0.7479915911E-01
          0                 3           1             4    7     1       0.3185833729E-04       4    7    1         0.1761627532E-02      0.5195801299E-02

    ------------------------------------------------
       NWT REQUIRED            3 OUTER ITERATIONS 
       AND A TOTAL OF          5 INNER ITERATIONS.
    ------------------------------------------------

 NO OUTPUT CONTROL FOR STRESS PERIOD   29   TIME STEP   23
 
 SOLVING FOR HEAD 
                                                   Max.-Head-Change                         Max.-Flux-Residual
  Residual-Control   Outer-Iter.   Inner-Iter.     Column Row Layer    Maximum-Head-Change  Column Row Layer    Maximum-Flux-Residual          L2-NORM 
          0                 1           2             4    7     1       0.4778001066E-02       4    7    1         0.2499519344E+00      0.7548208671E+00
          0                 2           2             4    7     1      -0.4645883111E-03       4    7    1        -0.2499521848E-01      0.7387506462E-01
          0                 3           1             4    7     1       0.3164250357E-04       4    7    1         0.1749665795E-02      0.5134232681E-02

    ------------------------------------------------
       NWT REQUIRED            3 OUTER ITERATIONS 
       AND A TOTAL OF          5 INNER ITERATIONS.
    ------------------------------------------------

 NO OUTPUT CONTROL FOR STRESS PERIOD   29   TIME STEP   24
 
 SOLVING FOR HEAD 
                                                   Max.-Head-Change                         Max.-Flux-Residual
  Residual-Control   Outer-Iter.   Inner-Iter.     Column Row Layer    Maximum-Head-Change  Column Row Layer    Maximum-Flux-Residual          L2-NORM 
          0                 1           2             4    7     1       0.4746045530E-02       4    7    1         0.2482768454E+00      0.7460212945E+00
          0                 2           2             4    7     1      -0.4614810972E-03       4    7    1        -0.2482770922E-01      0.7302421098E-01
          0                 3           1             4    7     1       0.3143087625E-04       4    7    1         0.1737940158E-02      0.5077091352E-02

    ------------------------------------------------
       NWT REQUIRED            3 OUTER ITERATIONS 
       AND A TOTAL OF          5 INNER ITERATIONS.
    ------------------------------------------------

 NO OUTPUT CONTROL FOR STRESS PERIOD   29   TIME STEP   25
 
 SOLVING FOR HEAD 
                                                   Max.-Head-Change                         Max.-Flux-Residual
  Residual-Control   Outer-Iter.   Inner-Iter.     Column Row Layer    Maximum-Head-Change  Column Row Layer    Maximum-Flux-Residual          L2-NORM 
          0                 1           2             4    7     1       0.4714167441E-02       4    7    1         0.2466051536E+00      0.7378837197E+00
          0                 2           2             4    7     1      -0.4583813819E-03       4    7    1        -0.2466053964E-01      0.7223607644E-01
          0                 3           1             4    7     1       0.3121976061E-04       4    7    1         0.1726238301E-02      0.5023531659E-02

    ------------------------------------------------
       NWT REQUIRED            3 OUTER ITERATIONS 
       AND A TOTAL OF          5 INNER ITERATIONS.
    ------------------------------------------------

 NO OUTPUT CONTROL FOR STRESS PERIOD   29   TIME STEP   26
 
 SOLVING FOR HEAD 
                                                   Max.-Head-Change                         Max.-Flux-Residual
  Residual-Control   Outer-Iter.   Inner-Iter.     Column Row Layer    Maximum-Head-Change  Column Row Layer    Maximum-Flux-Residual          L2-NORM 
          0                 1           2             4    7     1       0.4682907124E-02       4    7    1         0.2449670095E+00      0.7303243224E+00
          0                 2           2             4    7     1      -0.4553417437E-03       4    7    1        -0.2449672488E-01      0.7150439486E-01
          0                 3           1             4    7     1       0.3101273564E-04       4    7    1         0.1714771234E-02      0.4974496526E-02

    ------------------------------------------------
       NWT REQUIRED            3 OUTER ITERATIONS 
       AND A TOTAL OF          5 INNER ITERATIONS.
    ------------------------------------------------

 NO OUTPUT CONTROL FOR STRESS PERIOD   29   TIME STEP   27
 
 SOLVING FOR HEAD 
                                                   Max.-Head-Change                         Max.-Flux-Residual
  Residual-Control   Outer-Iter.   Inner-Iter.     Column Row Layer    Maximum-Head-Change  Column Row Layer    Maximum-Flux-Residual          L2-NORM 
          0                 1           2             4    7     1       0.4651446468E-02       4    7    1         0.2433166010E+00      0.7232666918E+00
          0                 2           2             4    7     1      -0.4522826032E-03       4    7    1        -0.2433168365E-01      0.7082099467E-01
          0                 3           1             4    7     1       0.3080438387E-04       4    7    1         0.1703218365E-02      0.4928576686E-02

    ------------------------------------------------
       NWT REQUIRED            3 OUTER ITERATIONS 
       AND A TOTAL OF          5 INNER ITERATIONS.
    ------------------------------------------------

 NO OUTPUT CONTROL FOR STRESS PERIOD   29   TIME STEP   28
 
 SOLVING FOR HEAD 
                                                   Max.-Head-Change                         Max.-Flux-Residual
  Residual-Control   Outer-Iter.   Inner-Iter.     Column Row Layer    Maximum-Head-Change  Column Row Layer    Maximum-Flux-Residual          L2-NORM 
          0                 1           2             4    7     1       0.4620612408E-02       4    7    1         0.2417001023E+00      0.7166515572E+00
          0                 2           2             4    7     1      -0.4492843909E-03       4    7    1        -0.2417003342E-01      0.7017977331E-01
          0                 3           1             4    7     1       0.3060018194E-04       4    7    1         0.1691902847E-02      0.4884885872E-02

    ------------------------------------------------
       NWT REQUIRED            3 OUTER ITERATIONS 
       AND A TOTAL OF          5 INNER ITERATIONS.
    ------------------------------------------------

 NO OUTPUT CONTROL FOR STRESS PERIOD   29   TIME STEP   29
 
 SOLVING FOR HEAD 
                                                   Max.-Head-Change                         Max.-Flux-Residual
  Residual-Control   Outer-Iter.   Inner-Iter.     Column Row Layer    Maximum-Head-Change  Column Row Layer    Maximum-Flux-Residual          L2-NORM 
          0                 1           2             4   13     1       0.5043612573E-02       4   13    1         0.2910145486E+00      0.8424642542E+00
          0                 2           2             4   13     1      -0.4860970736E-03       4   13    1        -0.2883908431E-01      0.8241769126E-01
          0                 3           1             4   13     1       0.3267541685E-04       4   13    1         0.1993236199E-02      0.5692009784E-02

    ------------------------------------------------
       NWT REQUIRED            3 OUTER ITERATIONS 
       AND A TOTAL OF          5 INNER ITERATIONS.
    ------------------------------------------------

 NO OUTPUT CONTROL FOR STRESS PERIOD   29   TIME STEP   30



 STREAM LISTING     PERIOD     29   STEP       30

 LAYER ROW COL. STREAM  RCH.  FLOW INTO     FLOW TO   FLOW OUT OF   OVRLND.     DIRECT     STREAM       STREAM     STREAM     STREAM   STREAMBED  STREAMBED
                SEG.NO.  NO.  STRM. RCH.    AQUIFER    STRM. RCH.    RUNOFF     PRECIP       ET          HEAD       DEPTH      WIDTH   CONDCTNC.   GRADIENT

   1    1    1     1     1    3.7161E+01  2.9408E-01   3.6867E+01  0.000E+00  0.000E+00  0.000E+00  1.09436E+03  1.310E+00  1.516E+01  6.824E-02  1.437E+00
   1    2    2     1     2    3.6867E+01  4.5538E-01   3.6412E+01  0.000E+00  0.000E+00  0.000E+00  1.08937E+03  1.307E+00  1.511E+01  1.057E-01  1.436E+00
   1    3    3     1     3    3.6412E+01  3.8831E-01   3.6024E+01  0.000E+00  0.000E+00  0.000E+00  1.08372E+03  1.303E+00  1.504E+01  9.023E-02  1.434E+00
   1    3    4     1     4    3.6024E+01  3.5753E-01   3.5666E+01  0.000E+00  0.000E+00  0.000E+00  1.07871E+03  1.300E+00  1.498E+01  8.314E-02  1.433E+00
   1    4    5     2     1    3.3666E+01  3.4626E-01   3.3320E+01  0.000E+00  0.000E+00  0.000E+00  1.07337E+03  1.439E+00  1.200E+01  7.800E-02  1.480E+00
   1    5    6     2     2    3.3320E+01  2.6588E-01   3.3054E+01  0.000E+00  0.000E+00  0.000E+00  1.06794E+03  1.431E+00  1.200E+01  6.000E-02  1.477E+00
   1    6    6     2     3    3.3054E+01  2.6546E-01   3.2789E+01  0.000E+00  0.000E+00  0.000E+00  1.06322E+03  1.424E+00  1.200E+01  6.000E-02  1.475E+00
   1    7    6     2     4    3.2789E+01  2.6505E-01   3.2524E+01  0.000E+00  0.000E+00  0.000E+00  1.05849E+03  1.417E+00  1.200E+01  6.000E-02  1.472E+00
   1    8    6     2     5    3.2524E+01  2.6464E-01   3.2259E+01  0.000E+00  0.000E+00  0.000E+00  1.05377E+03  1.411E+00  1.200E+01  6.000E-02  1.470E+00
   1    3    5     3     1    2.0000E+00  2.8252E-01   1.7175E+00  0.000E+00  0.000E+00  0.000E+00  1.07555E+03  1.909E+00  9.636E+00  7.227E-02  1.955E+00
   1    3    6     3     2    1.7175E+00  2.4905E-01   1.4684E+00  0.000E+00  0.000E+00  0.000E+00  1.07264E+03  1.727E+00  8.909E+00  6.682E-02  1.864E+00
   1    3    7     3     3    1.4684E+00  1.9718E-01   1.2712E+00  0.000E+00  0.000E+00  0.000E+00  1.06987E+03  1.555E+00  8.218E+00  5.547E-02  1.777E+00
   1    4    8     3     4    1.2712E+00  2.2567E-01   1.0456E+00  0.000E+00  0.000E+00  0.000E+00  1.06682E+03  1.364E+00  7.455E+00  6.709E-02  1.682E+00
   1    5    8     3     5    1.0456E+00  1.5790E-01   8.8768E-01  0.000E+00  0.000E+00  0.000E+00  1.06362E+03  1.164E+00  6.655E+00  4.991E-02  1.582E+00
   1    6    8     3     6    8.8768E-01  5.5980E-02   8.3170E-01  0.000E+00  0.000E+00  0.000E+00  1.06158E+03  1.036E+00  6.145E+00  1.844E-02  1.518E+00
   1    5   10     4     1    1.0000E+01  9.0919E-02   9.9091E+00  0.000E+00  0.000E+00  0.000E+00  1.07836E+03  6.368E-01  1.000E+01  2.500E-02  1.212E+00
   1    5    9     4     2    9.9091E+00  1.8158E-01   9.7275E+00  0.000E+00  0.000E+00  0.000E+00  1.07154E+03  6.315E-01  1.000E+01  5.000E-02  1.211E+00
   1    6    8     4     3    9.7275E+00  1.2689E-01   9.6006E+00  0.000E+00  0.000E+00  0.000E+00  1.06381E+03  6.256E-01  1.000E+01  3.500E-02  1.209E+00
   1    6    8     5     1    1.0432E+01  2.2686E-01   1.0205E+01  0.000E+00  0.000E+00  0.000E+00  1.05868E+03  6.790E-01  1.542E+01  6.166E-02  1.226E+00
   1    7    7     5     2    1.0205E+01  2.7894E-01   9.9265E+00  0.000E+00  0.000E+00  0.000E+00  1.05417E+03  6.732E-01  1.519E+01  7.594E-02  1.224E+00
   1    8    7     5     3    9.9265E+00  1.9221E-01   9.7343E+00  0.000E+00  0.000E+00  0.000E+00  1.04992E+03  6.676E-01  1.497E+01  5.241E-02  1.223E+00
   1    8    6     5     4    9.7343E+00  1.3577E-01   9.5985E+00  0.000E+00  0.000E+00  0.000E+00  1.04691E+03  6.637E-01  1.482E+01  3.706E-02  1.221E+00
   1    9    6     6     1    4.1857E+01  2.7961E-01   4.1578E+01  0.000E+00  0.000E+00  0.000E+00  1.04439E+03  1.660E+00  1.200E+01  6.000E-02  1.553E+00
   1   10    7     6     2    4.1578E+01  2.7921E-01   4.1299E+01  0.000E+00  0.000E+00  0.000E+00  1.03984E+03  1.654E+00  1.200E+01  6.000E-02  1.551E+00
   1   11    7     6     3    4.1299E+01  2.7881E-01   4.1020E+01  0.000E+00  0.000E+00  0.000E+00  1.03528E+03  1.647E+00  1.200E+01  6.000E-02  1.549E+00
   1   12    7     6     4    4.1020E+01  2.7841E-01   4.0741E+01  0.000E+00  0.000E+00  0.000E+00  1.03073E+03  1.640E+00  1.200E+01  6.000E-02  1.547E+00
   1   13    7     6     5    4.0741E+01  1.2744E-02   4.0729E+01  0.000E+00  0.000E+00  0.000E+00  1.02755E+03  1.637E+00  1.200E+01  2.400E-02  1.770E-01
   1   14    9     7     1    1.5000E+02  1.3422E+00   1.4866E+02  0.000E+00  0.000E+00  0.000E+00  1.03987E+03  2.288E+00  5.529E+01  5.593E-01  8.000E-01
   1   13    8     7     2    1.4866E+02  1.8539E+00   1.4680E+02  0.000E+00  0.000E+00  0.000E+00  1.03478E+03  2.279E+00  5.526E+01  6.148E-01  1.005E+00
   1   13    7     7     3    1.4680E+02  1.4938E+00   1.4531E+02  0.000E+00  0.000E+00  0.000E+00  1.02969E+03  2.270E+00  5.522E+01  5.584E-01  8.916E-01
   1   13    6     8     1    1.8604E+02  1.0147E+00   1.8502E+02  0.000E+00  0.000E+00  0.000E+00  1.02493E+03  3.051E+00  4.423E+01  4.508E-01  7.503E-01
   1   13    5     8     2    1.8502E+02  2.3615E-01   1.8479E+02  0.000E+00  0.000E+00  0.000E+00  1.01867E+03  3.047E+00  4.418E+01  4.502E-01  1.749E-01
   1   13    4     8     3    1.8479E+02 -2.1003E+00   1.8689E+02  0.000E+00  0.000E+00  0.000E+00  1.01243E+03  3.052E+00  4.426E+01  4.510E+00 -1.552E-01
   1   13    3     8     4    1.8689E+02 -3.3911E+00   1.9028E+02  0.000E+00  0.000E+00  0.000E+00  1.00619E+03  3.069E+00  4.451E+01  4.535E+00 -2.492E-01
   1   13    2     8     5    1.9028E+02 -2.3334E+00   1.9261E+02  0.000E+00  0.000E+00  0.000E+00  9.99962E+02  3.087E+00  4.476E+01  4.561E+00 -1.705E-01
   1   13    1     8     6    1.9261E+02 -1.8888E+00   1.9450E+02  0.000E+00  0.000E+00  0.000E+00  9.94974E+02  3.099E+00  4.494E+01  2.748E+00 -2.291E-01
   1    8    6     9     1    0.0000E+00  0.0000E+00   0.0000E+00  0.000E+00  0.000E+00  0.000E+00  1.07875E+03  0.000E+00  4.000E+00  0.000E+00  1.000E+00
   1    8    5     9     2    0.0000E+00  0.0000E+00   0.0000E+00  0.000E+00  0.000E+00  0.000E+00  1.07825E+03  0.000E+00  4.000E+00  0.000E+00  1.000E+00





UNSATURATED ZONE PACKAGE VOLUMETRIC BUDGET FOR  TIME STEP    30 STRESS PERIOD   29
  ------------------------------------------------------------------------------



     CUMULATIVE VOLUMES      L**3       RATES FOR THIS TIME STEP      L**3/T
     ------------------                 ------------------------

           IN:                                      IN:
           ---                                      ---
        INFILTRATION =  1290903194.4246          INFILTRATION =           4.4075

          OUT:                                     OUT:
          ----                                     ----
              UZF ET =  1029934014.3296                UZF ET =           4.4075
        UZF RECHARGE =     7088507.2269          UZF RECHARGE =           0.0228

            IN - OUT =   253880672.8680              IN - OUT =      -2.2783E-02

          STORAGE:                                 STORAGE:
          --------                                 --------
      STORAGE CHANGE =   253881468.6457        STORAGE CHANGE =      -2.2783E-02

 PERCENT DISCREPANCY IS DIFFERENCE BETWEEN IN-OUT MINUS CHANGE IN STORAGE
 DIVIDED BY THE AVERAGE OF IN AND OUT TIMES 100

 PERCENT DISCREPANCY =          -0.00     PERCENT DISCREPANCY =           0.00






1
  VOLUMETRIC BUDGET FOR AGRICULTURAL FIELDS AT  END OF TIME STEP   30, STRESS PERIOD  29
  ------------------------------------------------------------------------------

     CUMULATIVE VOLUMES      L**3       RATES FOR THIS TIME STEP      L**3/T
     ------------------                 ------------------------

           IN:                                      IN:
           ---                                      ---
               AG WELLS  =   368416480.0000                 AG WELLS  =           0.0000
      DIVERSION SEGMENTS =   598044480.0000        DIVERSION SEGMENTS =           0.0000
           GW IRRIGATION =           0.0000             GW IRRIGATION =           0.0000
           SW IRRIGATION =           0.0000             SW IRRIGATION =           0.0000
        SYSTEM LOSSES GW =           0.0000          SYSTEM LOSSES GW =           0.0000
        SYSTEM LOSSES SW =           0.0000          SYSTEM LOSSES SW =           0.0000

                TOTAL IN =   966460928.0000                  TOTAL IN =           0.0000

          OUT:                                     OUT:
          ----                                     ----
               AG WELLS  =           0.0000                 AG WELLS  =           0.0000
      DIVERSION SEGMENTS =           0.0000        DIVERSION SEGMENTS =           0.0000
           GW IRRIGATION =   368416480.0000             GW IRRIGATION =           0.0000
           SW IRRIGATION =   598056384.0000             SW IRRIGATION =           0.0000
        SYSTEM LOSSES GW =           0.0000          SYSTEM LOSSES GW =           0.0000
        SYSTEM LOSSES SW =           0.0000          SYSTEM LOSSES SW =           0.0000

               TOTAL OUT =   966472832.0000                 TOTAL OUT =           0.0000

                IN - OUT =      -11904.0000                  IN - OUT =           0.0000

     PERCENT DISCREPANCY =          -0.00         PERCENT DISCREPANCY =           0.00



1
  VOLUMETRIC BUDGET FOR ENTIRE MODEL AT END OF TIME STEP   30, STRESS PERIOD  29
  ------------------------------------------------------------------------------

     CUMULATIVE VOLUMES      L**3       RATES FOR THIS TIME STEP      L**3/T
     ------------------                 ------------------------

           IN:                                      IN:
           ---                                      ---
             STORAGE     =   625149504.0000               STORAGE     =           1.5331
       CONSTANT HEAD     =           0.0000         CONSTANT HEAD     =           0.0000
     HEAD DEP BOUNDS     =    21073504.0000       HEAD DEP BOUNDS     =           0.2862
      STREAM LEAKAGE     =   878393792.0000        STREAM LEAKAGE     =          12.3735
        UZF RECHARGE     =     7088507.5000          UZF RECHARGE     =       2.2783E-02
               GW ET     =           0.0000                 GW ET     =           0.0000
     SURFACE LEAKAGE     =           0.0000       SURFACE LEAKAGE     =           0.0000
           AG WELLS      =           0.0000             AG WELLS      =           0.0000

                TOTAL IN =  1531705216.0000                  TOTAL IN =          14.2156

          OUT:                                     OUT:
          ----                                     ----
             STORAGE     =   346944448.0000               STORAGE     =           4.2116
       CONSTANT HEAD     =           0.0000         CONSTANT HEAD     =           0.0000
     HEAD DEP BOUNDS     =    21430658.0000       HEAD DEP BOUNDS     =           0.2911
      STREAM LEAKAGE     =   792889280.0000        STREAM LEAKAGE     =           9.7136
        UZF RECHARGE     =           0.0000          UZF RECHARGE     =           0.0000
               GW ET     =     2027290.8750                 GW ET     =           0.0000
     SURFACE LEAKAGE     =           0.0000       SURFACE LEAKAGE     =           0.0000
           AG WELLS      =   368416480.0000             AG WELLS      =           0.0000

               TOTAL OUT =  1531708160.0000                 TOTAL OUT =          14.2163

                IN - OUT =       -2944.0000                  IN - OUT =      -7.0095E-04

     PERCENT DISCREPANCY =          -0.00         PERCENT DISCREPANCY =          -0.00






         TIME SUMMARY AT END OF TIME STEP   30 IN STRESS PERIOD   29
                    SECONDS     MINUTES      HOURS       DAYS        YEARS
                    -----------------------------------------------------------
   TIME STEP LENGTH  87667.      1461.1      24.352      1.0147     2.77799E-03
 STRESS PERIOD TIME 2.63000E+06  43833.      730.56      30.440     8.33397E-02
         TOTAL TIME 7.37266E+07 1.22878E+06  20480.      853.32      2.3363    
1
1
                            STRESS PERIOD NO.   30, LENGTH =   2630000.    
                            -----------------------------------------------

                              NUMBER OF TIME STEPS =    30

                               MULTIPLIER FOR DELT =     1.000

                            INITIAL TIME STEP SIZE =   87666.66    

 REUSING NON-PARAMETER GHB CELLS FROM LAST STRESS PERIOD

      2 GHB CELLS

 REUSING STREAM SEGMENT DATA FROM LAST STRESS PERIOD



            AREAL INFILTRATION RATE
 READING ON UNIT   19 WITH FORMAT: (10F4.0)            

            1           2           3           4           5           6           7           8           9          10
 ........................................................................................................................
   1   1.2000E-09   0.000       0.000       0.000       0.000       0.000       0.000       0.000       0.000       0.000    
   2   2.1000E-09  2.0000E-09  8.0000E-10  8.5000E-09   0.000       0.000       0.000       0.000       0.000       0.000    
   3   5.0000E-10  1.1000E-09  8.8000E-09  5.5000E-09   0.000       0.000       0.000       0.000       0.000       0.000    
   4   8.5000E-09  1.1000E-09  1.1000E-09  1.1000E-09  2.0000E-09   0.000       0.000       0.000       0.000       0.000    
   5   8.5000E-09  1.1000E-09  1.1000E-09  1.1000E-09  1.1000E-09   0.000       0.000       0.000       0.000       0.000    
   6   8.5000E-09  5.2000E-09  2.1000E-09  1.1000E-09  1.5000E-09   0.000       0.000       0.000       0.000       0.000    
   7   8.5000E-09  5.2000E-09  2.1000E-09  1.2000E-09  2.0000E-09   0.000       0.000       0.000       0.000       0.000    
   8   5.0000E-10  5.2000E-09  2.1000E-09  1.2000E-09  5.0000E-09   0.000       0.000       0.000       0.000       0.000    
   9   5.0000E-10  5.2000E-09  2.1000E-09  1.2000E-09  5.0000E-09   0.000       0.000       0.000       0.000       0.000    
  10   5.0000E-10  5.2000E-09  2.1000E-09  1.2000E-09  5.8000E-09   0.000       0.000       0.000       0.000       0.000    
  11   1.0000E-10  1.1000E-09  1.1000E-09  1.2000E-09  5.0000E-09   0.000       0.000       0.000       0.000       0.000    
  12   1.1000E-09  1.1000E-09  1.1000E-09  1.1000E-09  2.0000E-09   0.000       0.000       0.000       0.000       0.000    
  13   1.1000E-09  2.2000E-09  2.2000E-09  2.1000E-09  1.0000E-09   0.000       0.000       0.000       0.000       0.000    
  14   2.0000E-10  5.5000E-09  5.5000E-09  5.2000E-09  1.0000E-09   0.000       0.000       0.000       0.000       0.000    
  15    0.000      8.8000E-09  8.8000E-09   0.000       0.000       0.000       0.000       0.000       0.000       0.000    

                  ET RATE =  5.000000E-08

 USING ET EXTINCTION DEPTH FROM PREVIOUS STRESS PERIOD. CURRENT PERIOD IS:      30

 USING EXTINCTION WATER CONTENT FROM PREVIOUS STRESS PERIOD. CURRENT PERIOD IS:      30

 USING AIR ENTRY PRESSURE FROM PREVIOUS STRESS PERIOD. CURRENT PERIOD IS:      30

 USING ROOT PRESSURE HEAD FROM PREVIOUS STRESS PERIOD. CURRENT PERIOD IS:      30

 USING ROOT ACTIVITY FROM PREVIOUS STRESS PERIOD. CURRENT PERIOD IS:      30

 PROCESSING AG STRESS PERIOD DATA

 READING AG STRESS PERIOD DATA

 READING IRRIGATION SEGMENT

 READING IRRIGATION WELL

 READING SUPPLEMENTAL WELL

 END PROCESSING AG STRESS PERIOD DATA OPTIONS
 
 SOLVING FOR HEAD 
                                                   Max.-Head-Change                         Max.-Flux-Residual
  Residual-Control   Outer-Iter.   Inner-Iter.     Column Row Layer    Maximum-Head-Change  Column Row Layer    Maximum-Flux-Residual          L2-NORM 
          0                 1           2             4   13     1       0.1922121827E-01       4   13    1         0.1110442368E+01      0.2062311441E+01
          0                 2           2             4    7     1      -0.2278730700E-01       4    7    1        -0.1223851242E+01      0.3017680673E+01
          0                 3           2             4    7     1       0.2328778914E-01       4    7    1         0.1285669143E+01      0.3149775457E+01
          0                 4           2             4    7     1      -0.9264484158E-03       4    7    1        -0.5258449207E-01      0.1214787046E+00
          0                 5           1             5    8     1      -0.4889969765E-04       5    8    1        -0.2953207555E-02      0.3373798303E-02

    ------------------------------------------------
       NWT REQUIRED            5 OUTER ITERATIONS 
       AND A TOTAL OF          9 INNER ITERATIONS.
    ------------------------------------------------

 NO OUTPUT CONTROL FOR STRESS PERIOD   30   TIME STEP    1
 
 SOLVING FOR HEAD 
                                                   Max.-Head-Change                         Max.-Flux-Residual
  Residual-Control   Outer-Iter.   Inner-Iter.     Column Row Layer    Maximum-Head-Change  Column Row Layer    Maximum-Flux-Residual          L2-NORM 
          0                 1           2             4   13     1       0.1788594611E-01       4   13    1         0.1032921012E+01      0.1961728055E+01
          0                 2           2             4   13     1      -0.1721066248E-02       4   13    1        -0.1021960330E+00      0.1906865938E+00
          0                 3           1             4   13     1       0.1154397147E-03       4   13    1         0.7047971190E-02      0.1287517871E-01
          0                 4           1             4   13     1      -0.4493339982E-05       4   13    1        -0.2820896434E-03      0.4977730545E-03

    ------------------------------------------------
       NWT REQUIRED            4 OUTER ITERATIONS 
       AND A TOTAL OF          6 INNER ITERATIONS.
    ------------------------------------------------

 NO OUTPUT CONTROL FOR STRESS PERIOD   30   TIME STEP    2
 
 SOLVING FOR HEAD 
                                                   Max.-Head-Change                         Max.-Flux-Residual
  Residual-Control   Outer-Iter.   Inner-Iter.     Column Row Layer    Maximum-Head-Change  Column Row Layer    Maximum-Flux-Residual          L2-NORM 
          0                 1           2             4   13     1       0.1610791139E-01       4   13    1         0.9297366339E+00      0.1828075456E+01
          0                 2           2             4    7     1      -0.1949471621E-01       4    7    1        -0.1047015456E+01      0.2579486027E+01
          0                 3           2             4    7     1       0.1986604512E-01       4    7    1         0.1096763870E+01      0.2685378696E+01
          0                 4           2             4    7     1      -0.7902989352E-03       4    7    1        -0.4485810573E-01      0.1030197734E+00
          0                 5           1             5    8     1      -0.3609986482E-04       5    8    1        -0.2182601577E-02      0.2587584170E-02

    ------------------------------------------------
       NWT REQUIRED            5 OUTER ITERATIONS 
       AND A TOTAL OF          9 INNER ITERATIONS.
    ------------------------------------------------

 NO OUTPUT CONTROL FOR STRESS PERIOD   30   TIME STEP    3
 
 SOLVING FOR HEAD 
                                                   Max.-Head-Change                         Max.-Flux-Residual
  Residual-Control   Outer-Iter.   Inner-Iter.     Column Row Layer    Maximum-Head-Change  Column Row Layer    Maximum-Flux-Residual          L2-NORM 
          0                 1           2             4   13     1       0.1500734367E-01       4   13    1         0.8658892306E+00      0.1744235717E+01
          0                 2           2             4   13     1      -0.1454745280E-02       4   13    1        -0.8630208760E-01      0.1735314042E+00
          0                 3           1             4   13     1       0.8714658331E-04       4   13    1         0.5315642088E-02      0.1232098030E-01

    ------------------------------------------------
       NWT REQUIRED            3 OUTER ITERATIONS 
       AND A TOTAL OF          5 INNER ITERATIONS.
    ------------------------------------------------

 NO OUTPUT CONTROL FOR STRESS PERIOD   30   TIME STEP    4
 
 SOLVING FOR HEAD 
                                                   Max.-Head-Change                         Max.-Flux-Residual
  Residual-Control   Outer-Iter.   Inner-Iter.     Column Row Layer    Maximum-Head-Change  Column Row Layer    Maximum-Flux-Residual          L2-NORM 
          0                 1           2             2   13     1       0.1363995135E-01       4   13    1         0.7802138654E+00      0.1633900935E+01
          0                 2           2             4    7     1      -0.1965820023E-01       4    7    1        -0.1055791811E+01      0.2598189270E+01
          0                 3           2             4    7     1       0.2004146342E-01       4    7    1         0.1106448248E+01      0.2709383506E+01
          0                 4           2             4    7     1      -0.7972787681E-03       4    7    1        -0.4525420442E-01      0.1039858147E+00
          0                 5           1             5    8     1      -0.3676795147E-04       5    8    1        -0.2222822704E-02      0.2629577246E-02

    ------------------------------------------------
       NWT REQUIRED            5 OUTER ITERATIONS 
       AND A TOTAL OF          9 INNER ITERATIONS.
    ------------------------------------------------

 NO OUTPUT CONTROL FOR STRESS PERIOD   30   TIME STEP    5
 
 SOLVING FOR HEAD 
                                                   Max.-Head-Change                         Max.-Flux-Residual
  Residual-Control   Outer-Iter.   Inner-Iter.     Column Row Layer    Maximum-Head-Change  Column Row Layer    Maximum-Flux-Residual          L2-NORM 
          0                 1           2             2   13     1       0.1293416323E-01       2   13    1         0.7323301197E+00      0.1569463234E+01
          0                 2           2             4    7     1      -0.2672077258E-02       4    7    1        -0.1435336265E+00      0.3808832769E+00
          0                 3           2             4    7     1       0.1854671892E-02       4    7    1         0.1024002347E+00      0.2445229059E+00
          0                 4           1             5    8     1       0.1898929577E-03       5    8    1         0.1110070434E-01      0.1252296176E-01
          0                 5           1             5    8     1       0.9701329244E-04       5    8    1         0.5514811964E-02      0.1290836496E-01

    ------------------------------------------------
       NWT REQUIRED            5 OUTER ITERATIONS 
       AND A TOTAL OF          8 INNER ITERATIONS.
    ------------------------------------------------

 NO OUTPUT CONTROL FOR STRESS PERIOD   30   TIME STEP    6
 
 SOLVING FOR HEAD 
                                                   Max.-Head-Change                         Max.-Flux-Residual
  Residual-Control   Outer-Iter.   Inner-Iter.     Column Row Layer    Maximum-Head-Change  Column Row Layer    Maximum-Flux-Residual          L2-NORM 
          0                 1           2             2   13     1       0.1195431668E-01       2   13    1         0.6770765325E+00      0.1477085055E+01
          0                 2           2             4    7     1      -0.1813504089E-01       4    7    1        -0.9739849785E+00      0.2394523622E+01
          0                 3           2             4    7     1       0.1846090563E-01       4    7    1         0.1019189824E+01      0.2494707718E+01
          0                 4           2             4    7     1      -0.7343889179E-03       4    7    1        -0.4168526813E-01      0.9546912513E-01
          0                 5           1             5    8     1      -0.3076503538E-04       5    8    1        -0.1861442686E-02      0.2265586119E-02

    ------------------------------------------------
       NWT REQUIRED            5 OUTER ITERATIONS 
       AND A TOTAL OF          9 INNER ITERATIONS.
    ------------------------------------------------

 NO OUTPUT CONTROL FOR STRESS PERIOD   30   TIME STEP    7
 
 SOLVING FOR HEAD 
                                                   Max.-Head-Change                         Max.-Flux-Residual
  Residual-Control   Outer-Iter.   Inner-Iter.     Column Row Layer    Maximum-Head-Change  Column Row Layer    Maximum-Flux-Residual          L2-NORM 
          0                 1           2             2   13     1       0.1134578552E-01       2   13    1         0.6426583639E+00      0.1420263162E+01
          0                 2           2             4    7     1      -0.7398440501E-02       4    7    1        -0.3973636737E+00      0.9796131879E+00
          0                 3           2             4    7     1       0.7287639469E-02       4    7    1         0.4023430167E+00      0.9785371073E+00
          0                 4           2             4    7     1      -0.2898138337E-03       4    7    1        -0.1645590637E-01      0.3770204296E-01
          0                 5           1             5    8     1       0.8704203474E-05       5    8    1         0.5010786695E-03      0.7131379827E-03

    ------------------------------------------------
       NWT REQUIRED            5 OUTER ITERATIONS 
       AND A TOTAL OF          9 INNER ITERATIONS.
    ------------------------------------------------

 NO OUTPUT CONTROL FOR STRESS PERIOD   30   TIME STEP    8
 
 SOLVING FOR HEAD 
                                                   Max.-Head-Change                         Max.-Flux-Residual
  Residual-Control   Outer-Iter.   Inner-Iter.     Column Row Layer    Maximum-Head-Change  Column Row Layer    Maximum-Flux-Residual          L2-NORM 
          0                 1           2             2   13     1       0.1057408170E-01       2   13    1         0.5990038054E+00      0.1350332693E+01
          0                 2           2             4    7     1      -0.1620044398E-01       4    7    1        -0.8700826171E+00      0.2137266759E+01
          0                 3           2             4    7     1       0.1645209650E-01       4    7    1         0.9082887437E+00      0.2222171897E+01
          0                 4           2             4    7     1      -0.6544602527E-03       4    7    1        -0.3714933640E-01      0.8474369399E-01
          0                 5           1             5    8     1      -0.2339297692E-04       5    8    1        -0.1417577112E-02      0.1825828585E-02

    ------------------------------------------------
       NWT REQUIRED            5 OUTER ITERATIONS 
       AND A TOTAL OF          9 INNER ITERATIONS.
    ------------------------------------------------

 NO OUTPUT CONTROL FOR STRESS PERIOD   30   TIME STEP    9
 
 SOLVING FOR HEAD 
                                                   Max.-Head-Change                         Max.-Flux-Residual
  Residual-Control   Outer-Iter.   Inner-Iter.     Column Row Layer    Maximum-Head-Change  Column Row Layer    Maximum-Flux-Residual          L2-NORM 
          0                 1           2             2   13     1       0.1003443451E-01       2   13    1         0.5684548341E+00      0.1304018888E+01
          0                 2           2             4    7     1      -0.7204808657E-02       4    7    1        -0.3869615895E+00      0.9516723403E+00
          0                 3           2             4    7     1       0.7072915018E-02       4    7    1         0.3904884843E+00      0.9495224134E+00
          0                 4           2             4    7     1      -0.2768489598E-03       4    7    1        -0.1572007687E-01      0.3613902238E-01
          0                 5           1             5    8     1       0.1270824190E-04       5    8    1         0.7290848362E-03      0.1185747643E-02

    ------------------------------------------------
       NWT REQUIRED            5 OUTER ITERATIONS 
       AND A TOTAL OF          9 INNER ITERATIONS.
    ------------------------------------------------

 NO OUTPUT CONTROL FOR STRESS PERIOD   30   TIME STEP   10
 
 SOLVING FOR HEAD 
                                                   Max.-Head-Change                         Max.-Flux-Residual
  Residual-Control   Outer-Iter.   Inner-Iter.     Column Row Layer    Maximum-Head-Change  Column Row Layer    Maximum-Flux-Residual          L2-NORM 
          0                 1           2             2   13     1       0.9361810399E-02       2   13    1         0.5303820734E+00      0.1247551463E+01
          0                 2           2             4    7     1      -0.1585331556E-01       4    7    1        -0.8514371094E+00      0.2089878119E+01
          0                 3           2             4    7     1       0.1609550021E-01       4    7    1         0.8886019734E+00      0.2173852479E+01
          0                 4           2             4    7     1      -0.6402721681E-03       4    7    1        -0.3634413457E-01      0.8285847885E-01
          0                 5           1             5    8     1      -0.2222047500E-04       5    8    1        -0.1346949276E-02      0.1972891502E-02

    ------------------------------------------------
       NWT REQUIRED            5 OUTER ITERATIONS 
       AND A TOTAL OF          9 INNER ITERATIONS.
    ------------------------------------------------

 NO OUTPUT CONTROL FOR STRESS PERIOD   30   TIME STEP   11
 
 SOLVING FOR HEAD 
                                                   Max.-Head-Change                         Max.-Flux-Residual
  Residual-Control   Outer-Iter.   Inner-Iter.     Column Row Layer    Maximum-Head-Change  Column Row Layer    Maximum-Flux-Residual          L2-NORM 
          0                 1           2             2   13     1       0.8909932947E-02       2   13    1         0.5047805833E+00      0.1211778851E+01
          0                 2           2             4    7     1      -0.7587027610E-02       4    7    1        -0.4074864231E+00      0.1000763272E+01
          0                 3           2             4    7     1       0.7464615856E-02       4    7    1         0.4121131419E+00      0.1002749209E+01
          0                 4           2             4    7     1      -0.2900953830E-03       4    7    1        -0.1647173330E-01      0.3765806828E-01
          0                 5           1             5    8     1       0.1332885990E-04       5    8    1         0.7617395618E-03      0.1433391546E-02

    ------------------------------------------------
       NWT REQUIRED            5 OUTER ITERATIONS 
       AND A TOTAL OF          9 INNER ITERATIONS.
    ------------------------------------------------

 NO OUTPUT CONTROL FOR STRESS PERIOD   30   TIME STEP   12
 
 SOLVING FOR HEAD 
                                                   Max.-Head-Change                         Max.-Flux-Residual
  Residual-Control   Outer-Iter.   Inner-Iter.     Column Row Layer    Maximum-Head-Change  Column Row Layer    Maximum-Flux-Residual          L2-NORM 
          0                 1           2             2   13     1       0.8333821482E-02       2   13    1         0.4721564475E+00      0.1165974163E+01
          0                 2           2             4    7     1      -0.1583628775E-01       4    7    1        -0.8505201549E+00      0.2086428870E+01
          0                 3           2             4    7     1       0.1608238837E-01       4    7    1         0.8878780829E+00      0.2172144211E+01
          0                 4           2             4    7     1      -0.6397511697E-03       4    7    1        -0.3631452698E-01      0.8280486387E-01
          0                 5           1             5    8     1      -0.2235096399E-04       5    8    1        -0.1354763347E-02      0.1761107342E-02

    ------------------------------------------------
       NWT REQUIRED            5 OUTER ITERATIONS 
       AND A TOTAL OF          9 INNER ITERATIONS.
    ------------------------------------------------

 NO OUTPUT CONTROL FOR STRESS PERIOD   30   TIME STEP   13
 
 SOLVING FOR HEAD 
                                                   Max.-Head-Change                         Max.-Flux-Residual
  Residual-Control   Outer-Iter.   Inner-Iter.     Column Row Layer    Maximum-Head-Change  Column Row Layer    Maximum-Flux-Residual          L2-NORM 
          0                 1           2             2   13     1       0.7962686337E-02       2   13    1         0.4511165859E+00      0.1136133144E+01
          0                 2           2             4    7     1      -0.7577068346E-02       4    7    1        -0.4069491077E+00      0.9971439684E+00
          0                 3           2             4    7     1       0.7419259783E-02       4    7    1         0.4096090203E+00      0.9967508865E+00
          0                 4           2             4    7     1      -0.2791889430E-03       4    7    1        -0.1585266095E-01      0.3628548823E-01
          0                 5           1             5    8     1       0.2066375888E-04       5    8    1         0.1177461296E-02      0.2457390161E-02

    ------------------------------------------------
       NWT REQUIRED            5 OUTER ITERATIONS 
       AND A TOTAL OF          9 INNER ITERATIONS.
    ------------------------------------------------

 NO OUTPUT CONTROL FOR STRESS PERIOD   30   TIME STEP   14
 
 SOLVING FOR HEAD 
                                                   Max.-Head-Change                         Max.-Flux-Residual
  Residual-Control   Outer-Iter.   Inner-Iter.     Column Row Layer    Maximum-Head-Change  Column Row Layer    Maximum-Flux-Residual          L2-NORM 
          0                 1           2             2   13     1       0.7462077522E-02       2   13    1         0.4227587149E+00      0.1096284921E+01
          0                 2           2             4    7     1      -0.1570886048E-01       4    7    1        -0.8436743163E+00      0.2067394302E+01
          0                 3           2             4    7     1       0.1595418809E-01       4    7    1         0.8808004652E+00      0.2155692998E+01
          0                 4           2             4    7     1      -0.6346509244E-03       4    7    1        -0.3602504784E-01      0.8208443535E-01
          0                 5           1             5    8     1      -0.2206158434E-04       5    8    1        -0.1337296671E-02      0.1738064171E-02

    ------------------------------------------------
       NWT REQUIRED            5 OUTER ITERATIONS 
       AND A TOTAL OF          9 INNER ITERATIONS.
    ------------------------------------------------

 NO OUTPUT CONTROL FOR STRESS PERIOD   30   TIME STEP   15
 
 SOLVING FOR HEAD 
                                                   Max.-Head-Change                         Max.-Flux-Residual
  Residual-Control   Outer-Iter.   Inner-Iter.     Column Row Layer    Maximum-Head-Change  Column Row Layer    Maximum-Flux-Residual          L2-NORM 
          0                 1           2             2   13     1       0.7157441718E-02       2   13    1         0.4054788752E+00      0.1074134337E+01
          0                 2           2             4    7     1      -0.1170757700E-01       4    7    1        -0.6287801685E+00      0.1538113236E+01
          0                 3           2             4    7     1       0.1179144204E-01       4    7    1         0.6509859342E+00      0.1590650253E+01
          0                 4           2             4    7     1      -0.4690188900E-03       4    7    1        -0.2662550314E-01      0.6015093922E-01
          0                 5           1             5    8     1      -0.6606868091E-05       5    8    1        -0.4068186613E-03      0.9268941902E-03

    ------------------------------------------------
       NWT REQUIRED            5 OUTER ITERATIONS 
       AND A TOTAL OF          9 INNER ITERATIONS.
    ------------------------------------------------

 NO OUTPUT CONTROL FOR STRESS PERIOD   30   TIME STEP   16
 
 SOLVING FOR HEAD 
                                                   Max.-Head-Change                         Max.-Flux-Residual
  Residual-Control   Outer-Iter.   Inner-Iter.     Column Row Layer    Maximum-Head-Change  Column Row Layer    Maximum-Flux-Residual          L2-NORM 
          0                 1           2             2   13     1       0.6800315697E-02       2   13    1         0.3852341485E+00      0.1047887087E+01
          0                 2           2             4    7     1      -0.1194976537E-01       4    7    1        -0.6417861807E+00      0.1569299279E+01
          0                 3           2             4    7     1       0.1204569357E-01       4    7    1         0.6650224845E+00      0.1625165294E+01
          0                 4           2             4    7     1      -0.4791358038E-03       4    7    1        -0.2719960500E-01      0.6147304336E-01
          0                 5           1             5    8     1      -0.7672277830E-05       5    8    1        -0.4709342834E-03      0.9721852639E-03

    ------------------------------------------------
       NWT REQUIRED            5 OUTER ITERATIONS 
       AND A TOTAL OF          9 INNER ITERATIONS.
    ------------------------------------------------

 NO OUTPUT CONTROL FOR STRESS PERIOD   30   TIME STEP   17
 
 SOLVING FOR HEAD 
                                                   Max.-Head-Change                         Max.-Flux-Residual
  Residual-Control   Outer-Iter.   Inner-Iter.     Column Row Layer    Maximum-Head-Change  Column Row Layer    Maximum-Flux-Residual          L2-NORM 
          0                 1           2             2   13     1       0.6476654968E-02       2   13    1         0.3668827301E+00      0.1024478821E+01
          0                 2           2             4    7     1      -0.1187174571E-01       4    7    1        -0.6375951153E+00      0.1558852156E+01
          0                 3           2             4    7     1       0.1196660655E-01       4    7    1         0.6606562667E+00      0.1614467840E+01
          0                 4           2             4    7     1      -0.4759894648E-03       4    7    1        -0.2702102452E-01      0.6106561570E-01
          0                 5           1             5    8     1      -0.7494029877E-05       5    8    1        -0.4601747228E-03      0.9609913470E-03

    ------------------------------------------------
       NWT REQUIRED            5 OUTER ITERATIONS 
       AND A TOTAL OF          9 INNER ITERATIONS.
    ------------------------------------------------

 NO OUTPUT CONTROL FOR STRESS PERIOD   30   TIME STEP   18
 
 SOLVING FOR HEAD 
                                                   Max.-Head-Change                         Max.-Flux-Residual
  Residual-Control   Outer-Iter.   Inner-Iter.     Column Row Layer    Maximum-Head-Change  Column Row Layer    Maximum-Flux-Residual          L2-NORM 
          0                 1           2             2   13     1       0.6177470223E-02       2   13    1         0.3499177168E+00      0.1003657208E+01
          0                 2           2             4    7     1      -0.7280276656E-02       4    7    1        -0.3910045130E+00      0.9533896121E+00
          0                 3           2             4    7     1       0.7000293535E-02       4    7    1         0.3864786725E+00      0.9406487980E+00
          0                 4           2             4    7     1      -0.2343395589E-03       4    7    1        -0.1330707248E-01      0.3106603171E-01
          0                 5           1             5    8     1       0.4414118568E-04       5    8    1         0.2509800524E-02      0.5655463852E-02

    ------------------------------------------------
       NWT REQUIRED            5 OUTER ITERATIONS 
       AND A TOTAL OF          9 INNER ITERATIONS.
    ------------------------------------------------

 NO OUTPUT CONTROL FOR STRESS PERIOD   30   TIME STEP   19
 
 SOLVING FOR HEAD 
                                                   Max.-Head-Change                         Max.-Flux-Residual
  Residual-Control   Outer-Iter.   Inner-Iter.     Column Row Layer    Maximum-Head-Change  Column Row Layer    Maximum-Flux-Residual          L2-NORM 
          0                 1           2             2   13     1       0.5817153048E-02       2   13    1         0.3294987752E+00      0.9789448860E+00
          0                 2           2             4    7     1      -0.1529608798E-01       4    7    1        -0.8215011638E+00      0.2010558731E+01
          0                 3           2             4    7     1       0.1553509879E-01       4    7    1         0.8576636078E+00      0.2098914279E+01
          0                 4           2             4    7     1      -0.6179777797E-03       4    7    1        -0.3507873562E-01      0.7986096398E-01
          0                 5           1             5    8     1      -0.2102805973E-04       5    8    1        -0.1274947504E-02      0.1682861345E-02

    ------------------------------------------------
       NWT REQUIRED            5 OUTER ITERATIONS 
       AND A TOTAL OF          9 INNER ITERATIONS.
    ------------------------------------------------

 NO OUTPUT CONTROL FOR STRESS PERIOD   30   TIME STEP   20
 
 SOLVING FOR HEAD 
                                                   Max.-Head-Change                         Max.-Flux-Residual
  Residual-Control   Outer-Iter.   Inner-Iter.     Column Row Layer    Maximum-Head-Change  Column Row Layer    Maximum-Flux-Residual          L2-NORM 
          0                 1           2             2   13     1       0.5636169818E-02       2   13    1         0.3192205103E+00      0.9679144907E+00
          0                 2           2             4    7     1      -0.1151126077E-01       4    7    1        -0.6182321186E+00      0.1510933057E+01
          0                 3           2             4    7     1       0.1159752160E-01       4    7    1         0.6402799500E+00      0.1564475212E+01
          0                 4           2             4    7     1      -0.4613051505E-03       4    7    1        -0.2618762317E-01      0.5916054485E-01
          0                 5           1             5    8     1      -0.6432134789E-05       5    8    1        -0.3961670659E-03      0.9096916064E-03

    ------------------------------------------------
       NWT REQUIRED            5 OUTER ITERATIONS 
       AND A TOTAL OF          9 INNER ITERATIONS.
    ------------------------------------------------

 NO OUTPUT CONTROL FOR STRESS PERIOD   30   TIME STEP   21
 
 SOLVING FOR HEAD 
                                                   Max.-Head-Change                         Max.-Flux-Residual
  Residual-Control   Outer-Iter.   Inner-Iter.     Column Row Layer    Maximum-Head-Change  Column Row Layer    Maximum-Flux-Residual          L2-NORM 
          0                 1           2             2   13     1       0.5397608939E-02       2   13    1         0.3056911657E+00      0.9526513043E+00
          0                 2           2             4    7     1      -0.1173908655E-01       4    7    1        -0.6304669821E+00      0.1540531876E+01
          0                 3           2             4    7     1       0.1183668735E-01       4    7    1         0.6534836664E+00      0.1597272660E+01
          0                 4           2             4    7     1      -0.4708218801E-03       4    7    1        -0.2672766160E-01      0.6044203073E-01
          0                 5           1             5    8     1      -0.7458044088E-05       5    8    1        -0.4579005899E-03      0.9563878191E-03

    ------------------------------------------------
       NWT REQUIRED            5 OUTER ITERATIONS 
       AND A TOTAL OF          9 INNER ITERATIONS.
    ------------------------------------------------

 NO OUTPUT CONTROL FOR STRESS PERIOD   30   TIME STEP   22
 
 SOLVING FOR HEAD 
                                                   Max.-Head-Change                         Max.-Flux-Residual
  Residual-Control   Outer-Iter.   Inner-Iter.     Column Row Layer    Maximum-Head-Change  Column Row Layer    Maximum-Flux-Residual          L2-NORM 
          0                 1           2             2   13     1       0.5182704996E-02       2   13    1         0.2935020803E+00      0.9392030312E+00
          0                 2           2             4    7     1      -0.1171879115E-01       4    7    1        -0.6293763454E+00      0.1537355814E+01
          0                 3           2             4    7     1       0.1181752940E-01       4    7    1         0.6524259915E+00      0.1594866161E+01
          0                 4           2             4    7     1      -0.4700601316E-03       4    7    1        -0.2668440218E-01      0.6014389792E-01
          0                 5           1             5    8     1      -0.7519262297E-05       5    8    1        -0.4615544326E-03      0.9379223554E-03

    ------------------------------------------------
       NWT REQUIRED            5 OUTER ITERATIONS 
       AND A TOTAL OF          9 INNER ITERATIONS.
    ------------------------------------------------

 NO OUTPUT CONTROL FOR STRESS PERIOD   30   TIME STEP   23
 
 SOLVING FOR HEAD 
                                                   Max.-Head-Change                         Max.-Flux-Residual
  Residual-Control   Outer-Iter.   Inner-Iter.     Column Row Layer    Maximum-Head-Change  Column Row Layer    Maximum-Flux-Residual          L2-NORM 
          0                 1           2             2   13     1       0.4984805977E-02       2   13    1         0.2822772089E+00      0.9269854219E+00
          0                 2           2             4    7     1      -0.1171767222E-01       4    7    1        -0.6293155754E+00      0.1536807488E+01
          0                 3           2             4    7     1       0.1181833146E-01       4    7    1         0.6524702558E+00      0.1594995401E+01
          0                 4           2             4    7     1      -0.4700925801E-03       4    7    1        -0.2668621260E-01      0.6025245688E-01
          0                 5           1             5    8     1      -0.7656287369E-05       5    8    1        -0.4697719396E-03      0.9566922029E-03

    ------------------------------------------------
       NWT REQUIRED            5 OUTER ITERATIONS 
       AND A TOTAL OF          9 INNER ITERATIONS.
    ------------------------------------------------

 NO OUTPUT CONTROL FOR STRESS PERIOD   30   TIME STEP   24
 
 SOLVING FOR HEAD 
                                                   Max.-Head-Change                         Max.-Flux-Residual
  Residual-Control   Outer-Iter.   Inner-Iter.     Column Row Layer    Maximum-Head-Change  Column Row Layer    Maximum-Flux-Residual          L2-NORM 
          0                 1           2             2   13     1       0.4803603667E-02       2   13    1         0.2720012310E+00      0.9158380918E+00
          0                 2           2             4    7     1      -0.1171608000E-01       4    7    1        -0.6292293382E+00      0.1536448210E+01
          0                 3           2             4    7     1       0.1181863922E-01       4    7    1         0.6524872266E+00      0.1595068198E+01
          0                 4           2             4    7     1      -0.4701053719E-03       4    7    1        -0.2668690671E-01      0.6025821766E-01
          0                 5           1             5    8     1      -0.7794274457E-05       5    8    1        -0.4780467161E-03      0.9606403718E-03

    ------------------------------------------------
       NWT REQUIRED            5 OUTER ITERATIONS 
       AND A TOTAL OF          9 INNER ITERATIONS.
    ------------------------------------------------

 NO OUTPUT CONTROL FOR STRESS PERIOD   30   TIME STEP   25
 
 SOLVING FOR HEAD 
                                                   Max.-Head-Change                         Max.-Flux-Residual
  Residual-Control   Outer-Iter.   Inner-Iter.     Column Row Layer    Maximum-Head-Change  Column Row Layer    Maximum-Flux-Residual          L2-NORM 
          0                 1           2             2   13     1       0.4637367538E-02       2   13    1         0.2625796312E+00      0.9055156319E+00
          0                 2           2             4    7     1      -0.1171431584E-01       4    7    1        -0.6291339859E+00      0.1536219530E+01
          0                 3           2             4    7     1       0.1181871504E-01       4    7    1         0.6524914001E+00      0.1595115939E+01
          0                 4           2             4    7     1      -0.4701089303E-03       4    7    1        -0.2668707740E-01      0.6026318600E-01
          0                 5           1             5    8     1      -0.7930231134E-05       5    8    1        -0.4861995362E-03      0.9651020630E-03

    ------------------------------------------------
       NWT REQUIRED            5 OUTER ITERATIONS 
       AND A TOTAL OF          9 INNER ITERATIONS.
    ------------------------------------------------

 NO OUTPUT CONTROL FOR STRESS PERIOD   30   TIME STEP   26
 
 SOLVING FOR HEAD 
                                                   Max.-Head-Change                         Max.-Flux-Residual
  Residual-Control   Outer-Iter.   Inner-Iter.     Column Row Layer    Maximum-Head-Change  Column Row Layer    Maximum-Flux-Residual          L2-NORM 
          0                 1           2             1    1     1       0.4623747535E-02       2   13    1         0.2539124936E+00      0.8960711150E+00
          0                 2           2             4    7     1      -0.1171248435E-01       4    7    1        -0.6290350062E+00      0.1535988164E+01
          0                 3           2             4    7     1       0.1181872150E-01       4    7    1         0.6524917433E+00      0.1595155487E+01
          0                 4           2             4    7     1      -0.4701097396E-03       4    7    1        -0.2668709145E-01      0.6026795695E-01
          0                 5           1             5    8     1      -0.8068458955E-05       5    8    1        -0.4944884722E-03      0.9691173444E-03

    ------------------------------------------------
       NWT REQUIRED            5 OUTER ITERATIONS 
       AND A TOTAL OF          9 INNER ITERATIONS.
    ------------------------------------------------

 NO OUTPUT CONTROL FOR STRESS PERIOD   30   TIME STEP   27
 
 SOLVING FOR HEAD 
                                                   Max.-Head-Change                         Max.-Flux-Residual
  Residual-Control   Outer-Iter.   Inner-Iter.     Column Row Layer    Maximum-Head-Change  Column Row Layer    Maximum-Flux-Residual          L2-NORM 
          0                 1           2             1    1     1       0.4618309983E-02       2   13    1         0.2459347566E+00      0.8874100204E+00
          0                 2           2             4    7     1      -0.1171066829E-01       4    7    1        -0.6289369132E+00      0.1535760543E+01
          0                 3           2             4    7     1       0.1181869233E-01       4    7    1         0.6524901221E+00      0.1595189686E+01
          0                 4           2             4    7     1      -0.4701091325E-03       4    7    1        -0.2668702513E-01      0.6027258430E-01
          0                 5           1             5    8     1      -0.8206952840E-05       5    8    1        -0.5027933621E-03      0.9733854827E-03

    ------------------------------------------------
       NWT REQUIRED            5 OUTER ITERATIONS 
       AND A TOTAL OF          9 INNER ITERATIONS.
    ------------------------------------------------

 NO OUTPUT CONTROL FOR STRESS PERIOD   30   TIME STEP   28
 
 SOLVING FOR HEAD 
                                                   Max.-Head-Change                         Max.-Flux-Residual
  Residual-Control   Outer-Iter.   Inner-Iter.     Column Row Layer    Maximum-Head-Change  Column Row Layer    Maximum-Flux-Residual          L2-NORM 
          0                 1           2             1    1     1       0.4612891305E-02       1    1    1         0.2394967210E+00      0.8794202879E+00
          0                 2           2             4    7     1      -0.1170989757E-01       4    7    1        -0.6288949659E+00      0.1535675921E+01
          0                 3           2             4    7     1       0.1181975353E-01       4    7    1         0.6525486978E+00      0.1595372191E+01
          0                 4           2             4    7     1      -0.4701519120E-03       4    7    1        -0.2668942091E-01      0.6028331013E-01
          0                 5           1             5    8     1      -0.8349894262E-05       5    8    1        -0.5113658708E-03      0.9787404536E-03

    ------------------------------------------------
       NWT REQUIRED            5 OUTER ITERATIONS 
       AND A TOTAL OF          9 INNER ITERATIONS.
    ------------------------------------------------

 NO OUTPUT CONTROL FOR STRESS PERIOD   30   TIME STEP   29
 
 SOLVING FOR HEAD 
                                                   Max.-Head-Change                         Max.-Flux-Residual
  Residual-Control   Outer-Iter.   Inner-Iter.     Column Row Layer    Maximum-Head-Change  Column Row Layer    Maximum-Flux-Residual          L2-NORM 
          0                 1           2             1    1     1       0.4607514435E-02       1    1    1         0.2392169665E+00      0.8720368406E+00
          0                 2           2             4    7     1      -0.1171037349E-01       4    7    1        -0.6289199955E+00      0.1535758822E+01
          0                 3           2             4    7     1       0.1182208832E-01       4    7    1         0.6526775866E+00      0.1595727604E+01
          0                 4           2             4    7     1      -0.4702453675E-03       4    7    1        -0.2669469251E-01      0.6030001670E-01
          0                 5           1             5    8     1      -0.8497832963E-05       5    8    1        -0.5202392481E-03      0.9830732808E-03

    ------------------------------------------------
       NWT REQUIRED            5 OUTER ITERATIONS 
       AND A TOTAL OF          9 INNER ITERATIONS.
    ------------------------------------------------

 NO OUTPUT CONTROL FOR STRESS PERIOD   30   TIME STEP   30



 STREAM LISTING     PERIOD     30   STEP       30

 LAYER ROW COL. STREAM  RCH.  FLOW INTO     FLOW TO   FLOW OUT OF   OVRLND.     DIRECT     STREAM       STREAM     STREAM     STREAM   STREAMBED  STREAMBED
                SEG.NO.  NO.  STRM. RCH.    AQUIFER    STRM. RCH.    RUNOFF     PRECIP       ET          HEAD       DEPTH      WIDTH   CONDCTNC.   GRADIENT

   1    1    1     1     1    7.4248E+01  4.1988E-01   7.3828E+01  0.000E+00  0.000E+00  0.000E+00  1.09474E+03  1.690E+00  1.990E+01  8.954E-02  1.563E+00
   1    2    2     1     2    7.3828E+01  6.5043E-01   7.3177E+01  0.000E+00  0.000E+00  0.000E+00  1.08974E+03  1.684E+00  1.984E+01  1.389E-01  1.561E+00
   1    3    3     1     3    7.3177E+01  5.5489E-01   7.2623E+01  0.000E+00  0.000E+00  0.000E+00  1.08410E+03  1.677E+00  1.977E+01  1.186E-01  1.559E+00
   1    3    4     1     4    7.2623E+01  5.1112E-01   7.2111E+01  0.000E+00  0.000E+00  0.000E+00  1.07908E+03  1.671E+00  1.972E+01  1.094E-01  1.557E+00
   1    4    5     2     1    7.0111E+01  4.0856E-01   6.9703E+01  0.000E+00  0.000E+00  0.000E+00  1.07417E+03  2.238E+00  1.200E+01  7.800E-02  1.746E+00
   1    5    6     2     2    6.9703E+01  3.1386E-01   6.9389E+01  0.000E+00  0.000E+00  0.000E+00  1.06874E+03  2.231E+00  1.200E+01  6.000E-02  1.744E+00
   1    6    6     2     3    6.9389E+01  3.1350E-01   6.9075E+01  0.000E+00  0.000E+00  0.000E+00  1.06402E+03  2.225E+00  1.200E+01  6.000E-02  1.742E+00
   1    7    6     2     4    6.9075E+01  3.1314E-01   6.8762E+01  0.000E+00  0.000E+00  0.000E+00  1.05929E+03  2.219E+00  1.200E+01  6.000E-02  1.740E+00
   1    8    6     2     5    6.8762E+01  3.1277E-01   6.8450E+01  0.000E+00  0.000E+00  0.000E+00  1.05457E+03  2.213E+00  1.200E+01  6.000E-02  1.738E+00
   1    3    5     3     1    2.0000E+00  2.8252E-01   1.7175E+00  0.000E+00  0.000E+00  0.000E+00  1.07555E+03  1.909E+00  9.636E+00  7.227E-02  1.955E+00
   1    3    6     3     2    1.7175E+00  2.4905E-01   1.4684E+00  0.000E+00  0.000E+00  0.000E+00  1.07264E+03  1.727E+00  8.909E+00  6.682E-02  1.864E+00
   1    3    7     3     3    1.4684E+00  1.9718E-01   1.2712E+00  0.000E+00  0.000E+00  0.000E+00  1.06987E+03  1.555E+00  8.218E+00  5.547E-02  1.777E+00
   1    4    8     3     4    1.2712E+00  2.2567E-01   1.0456E+00  0.000E+00  0.000E+00  0.000E+00  1.06682E+03  1.364E+00  7.455E+00  6.709E-02  1.682E+00
   1    5    8     3     5    1.0456E+00  1.5790E-01   8.8768E-01  0.000E+00  0.000E+00  0.000E+00  1.06362E+03  1.164E+00  6.655E+00  4.991E-02  1.582E+00
   1    6    8     3     6    8.8768E-01  5.5980E-02   8.3170E-01  0.000E+00  0.000E+00  0.000E+00  1.06158E+03  1.036E+00  6.145E+00  1.844E-02  1.518E+00
   1    5   10     4     1    1.0000E+01  9.0919E-02   9.9091E+00  0.000E+00  0.000E+00  0.000E+00  1.07836E+03  6.368E-01  1.000E+01  2.500E-02  1.212E+00
   1    5    9     4     2    9.9091E+00  1.8158E-01   9.7275E+00  0.000E+00  0.000E+00  0.000E+00  1.07154E+03  6.315E-01  1.000E+01  5.000E-02  1.211E+00
   1    6    8     4     3    9.7275E+00  1.2689E-01   9.6006E+00  0.000E+00  0.000E+00  0.000E+00  1.06381E+03  6.256E-01  1.000E+01  3.500E-02  1.209E+00
   1    6    8     5     1    1.0432E+01  2.2686E-01   1.0205E+01  0.000E+00  0.000E+00  0.000E+00  1.05868E+03  6.790E-01  1.542E+01  6.166E-02  1.226E+00
   1    7    7     5     2    1.0205E+01  2.7894E-01   9.9265E+00  0.000E+00  0.000E+00  0.000E+00  1.05417E+03  6.732E-01  1.519E+01  7.594E-02  1.224E+00
   1    8    7     5     3    9.9265E+00  1.9221E-01   9.7343E+00  0.000E+00  0.000E+00  0.000E+00  1.04992E+03  6.676E-01  1.497E+01  5.241E-02  1.223E+00
   1    8    6     5     4    9.7343E+00  1.3577E-01   9.5985E+00  0.000E+00  0.000E+00  0.000E+00  1.04691E+03  6.637E-01  1.482E+01  3.706E-02  1.221E+00
   1    9    6     6     1    7.0744E+01  3.1657E-01   7.0428E+01  0.000E+00  0.000E+00  0.000E+00  1.04500E+03  2.276E+00  1.200E+01  6.000E-02  1.759E+00
   1   10    7     6     2    7.0428E+01  3.1620E-01   7.0112E+01  0.000E+00  0.000E+00  0.000E+00  1.04045E+03  2.270E+00  1.200E+01  6.000E-02  1.757E+00
   1   11    7     6     3    7.0112E+01  3.1583E-01   6.9796E+01  0.000E+00  0.000E+00  0.000E+00  1.03590E+03  2.264E+00  1.200E+01  6.000E-02  1.755E+00
   1   12    7     6     4    6.9796E+01  3.1547E-01   6.9480E+01  0.000E+00  0.000E+00  0.000E+00  1.03135E+03  2.258E+00  1.200E+01  6.000E-02  1.753E+00
   1   13    7     6     5    6.9480E+01  2.7400E-02   6.9453E+01  0.000E+00  0.000E+00  0.000E+00  1.02816E+03  2.254E+00  1.200E+01  2.400E-02  3.806E-01
   1   14    9     7     1    1.5000E+02  1.3429E+00   1.4866E+02  0.000E+00  0.000E+00  0.000E+00  1.03987E+03  2.288E+00  5.529E+01  5.593E-01  8.004E-01
   1   13    8     7     2    1.4866E+02  1.8553E+00   1.4680E+02  0.000E+00  0.000E+00  0.000E+00  1.03478E+03  2.279E+00  5.526E+01  6.148E-01  1.006E+00
   1   13    7     7     3    1.4680E+02  1.4898E+00   1.4531E+02  0.000E+00  0.000E+00  0.000E+00  1.02969E+03  2.270E+00  5.522E+01  5.584E-01  8.893E-01
   1   13    6     8     1    2.1476E+02  1.1269E+00   2.1364E+02  0.000E+00  0.000E+00  0.000E+00  1.02509E+03  3.219E+00  4.668E+01  4.757E-01  7.896E-01
   1   13    5     8     2    2.1364E+02  3.0507E-01   2.1333E+02  0.000E+00  0.000E+00  0.000E+00  1.01884E+03  3.215E+00  4.662E+01  4.751E-01  2.140E-01
   1   13    4     8     3    2.1333E+02 -2.0790E+00   2.1541E+02  0.000E+00  0.000E+00  0.000E+00  1.01260E+03  3.220E+00  4.670E+01  4.759E+00 -1.456E-01
   1   13    3     8     4    2.1541E+02 -3.3717E+00   2.1878E+02  0.000E+00  0.000E+00  0.000E+00  1.00636E+03  3.236E+00  4.692E+01  4.781E+00 -2.351E-01
   1   13    2     8     5    2.1878E+02 -2.4334E+00   2.2122E+02  0.000E+00  0.000E+00  0.000E+00  1.00013E+03  3.252E+00  4.715E+01  4.805E+00 -1.688E-01
   1   13    1     8     6    2.2122E+02 -1.8650E+00   2.2308E+02  0.000E+00  0.000E+00  0.000E+00  9.95139E+02  3.264E+00  4.732E+01  2.894E+00 -2.148E-01
   1    8    6     9     1    7.3038E+00  0.0000E+00   7.3038E+00  0.000E+00  0.000E+00  0.000E+00  1.08063E+03  1.877E+00  4.000E+00  0.000E+00  1.626E+00
   1    8    5     9     2    7.3038E+00  0.0000E+00   7.3038E+00  0.000E+00  0.000E+00  0.000E+00  1.08013E+03  1.877E+00  4.000E+00  0.000E+00  1.626E+00





UNSATURATED ZONE PACKAGE VOLUMETRIC BUDGET FOR  TIME STEP    30 STRESS PERIOD   30
  ------------------------------------------------------------------------------



     CUMULATIVE VOLUMES      L**3       RATES FOR THIS TIME STEP      L**3/T
     ------------------                 ------------------------

           IN:                                      IN:
           ---                                      ---
        INFILTRATION =  1321759463.4292          INFILTRATION =          11.7115

          OUT:                                     OUT:
          ----                                     ----
              UZF ET =  1060449630.1284                UZF ET =          11.6075
        UZF RECHARGE =     7163433.8102          UZF RECHARGE =           0.0296

            IN - OUT =   254146399.4905              IN - OUT =       7.4362E-02

          STORAGE:                                 STORAGE:
          --------                                 --------
      STORAGE CHANGE =   254147190.3378        STORAGE CHANGE =       7.4362E-02

 PERCENT DISCREPANCY IS DIFFERENCE BETWEEN IN-OUT MINUS CHANGE IN STORAGE
 DIVIDED BY THE AVERAGE OF IN AND OUT TIMES 100

 PERCENT DISCREPANCY =          -0.00     PERCENT DISCREPANCY =           0.00






1
  VOLUMETRIC BUDGET FOR AGRICULTURAL FIELDS AT  END OF TIME STEP   30, STRESS PERIOD  30
  ------------------------------------------------------------------------------

     CUMULATIVE VOLUMES      L**3       RATES FOR THIS TIME STEP      L**3/T
     ------------------                 ------------------------

           IN:                                      IN:
           ---                                      ---
               AG WELLS  =   368433760.0000                 AG WELLS  =           0.0000
      DIVERSION SEGMENTS =   617308608.0000        DIVERSION SEGMENTS =           7.3038
           GW IRRIGATION =           0.0000             GW IRRIGATION =           0.0000
           SW IRRIGATION =           0.0000             SW IRRIGATION =           0.0000
        SYSTEM LOSSES GW =           0.0000          SYSTEM LOSSES GW =           0.0000
        SYSTEM LOSSES SW =           0.0000          SYSTEM LOSSES SW =           0.0000

                TOTAL IN =   985742336.0000                  TOTAL IN =           7.3038

          OUT:                                     OUT:
          ----                                     ----
               AG WELLS  =           0.0000                 AG WELLS  =           0.0000
      DIVERSION SEGMENTS =           0.0000        DIVERSION SEGMENTS =           0.0000
           GW IRRIGATION =   368433760.0000             GW IRRIGATION =           0.0000
           SW IRRIGATION =   617320832.0000             SW IRRIGATION =           7.3040
        SYSTEM LOSSES GW =           0.0000          SYSTEM LOSSES GW =           0.0000
        SYSTEM LOSSES SW =           0.0000          SYSTEM LOSSES SW =           0.0000

               TOTAL OUT =   985754624.0000                 TOTAL OUT =           7.3040

                IN - OUT =      -12288.0000                  IN - OUT =      -1.4591E-04

     PERCENT DISCREPANCY =          -0.00         PERCENT DISCREPANCY =          -0.00



1
  VOLUMETRIC BUDGET FOR ENTIRE MODEL AT END OF TIME STEP   30, STRESS PERIOD  30
  ------------------------------------------------------------------------------

     CUMULATIVE VOLUMES      L**3       RATES FOR THIS TIME STEP      L**3/T
     ------------------                 ------------------------

           IN:                                      IN:
           ---                                      ---
             STORAGE     =   628321472.0000               STORAGE     =           1.0860
       CONSTANT HEAD     =           0.0000         CONSTANT HEAD     =           0.0000
     HEAD DEP BOUNDS     =    21826264.0000       HEAD DEP BOUNDS     =           0.2862
      STREAM LEAKAGE     =   914248832.0000        STREAM LEAKAGE     =          13.6111
        UZF RECHARGE     =     7163434.0000          UZF RECHARGE     =       2.9623E-02
               GW ET     =           0.0000                 GW ET     =           0.0000
     SURFACE LEAKAGE     =           0.0000       SURFACE LEAKAGE     =           0.0000
           AG WELLS      =           0.0000             AG WELLS      =           0.0000

                TOTAL IN =  1571559936.0000                  TOTAL IN =          15.0130

          OUT:                                     OUT:
          ----                                     ----
             STORAGE     =   361710432.0000               STORAGE     =           4.7330
       CONSTANT HEAD     =           0.0000         CONSTANT HEAD     =           0.0000
     HEAD DEP BOUNDS     =    22204012.0000       HEAD DEP BOUNDS     =           0.2958
      STREAM LEAKAGE     =   816852544.0000        STREAM LEAKAGE     =           9.7491
        UZF RECHARGE     =           0.0000          UZF RECHARGE     =           0.0000
               GW ET     =     2362205.7500                 GW ET     =           0.2351
     SURFACE LEAKAGE     =           0.0000       SURFACE LEAKAGE     =           0.0000
           AG WELLS      =   368433760.0000             AG WELLS      =           0.0000

               TOTAL OUT =  1571563008.0000                 TOTAL OUT =          15.0130

                IN - OUT =       -3072.0000                  IN - OUT =      -3.9101E-05

     PERCENT DISCREPANCY =          -0.00         PERCENT DISCREPANCY =          -0.00






         TIME SUMMARY AT END OF TIME STEP   30 IN STRESS PERIOD   30
                    SECONDS     MINUTES      HOURS       DAYS        YEARS
                    -----------------------------------------------------------
   TIME STEP LENGTH  87667.      1461.1      24.352      1.0147     2.77799E-03
 STRESS PERIOD TIME 2.63000E+06  43833.      730.56      30.440     8.33397E-02
         TOTAL TIME 7.63565E+07 1.27261E+06  21210.      883.76      2.4196    
1
1
                            STRESS PERIOD NO.   31, LENGTH =   2630000.    
                            -----------------------------------------------

                              NUMBER OF TIME STEPS =    30

                               MULTIPLIER FOR DELT =     1.000

                            INITIAL TIME STEP SIZE =   87666.66    

 REUSING NON-PARAMETER GHB CELLS FROM LAST STRESS PERIOD

      2 GHB CELLS

 REUSING STREAM SEGMENT DATA FROM LAST STRESS PERIOD



            AREAL INFILTRATION RATE
 READING ON UNIT   19 WITH FORMAT: (10F4.0)            

            1           2           3           4           5           6           7           8           9          10
 ........................................................................................................................
   1   1.2000E-09   0.000       0.000       0.000       0.000       0.000       0.000       0.000       0.000       0.000    
   2   2.1000E-09  2.0000E-09  8.0000E-10  8.5000E-09   0.000       0.000       0.000       0.000       0.000       0.000    
   3   5.0000E-10  1.1000E-09  8.8000E-09  5.5000E-09   0.000       0.000       0.000       0.000       0.000       0.000    
   4   8.5000E-09  1.1000E-09  1.1000E-09  1.1000E-09  2.0000E-09   0.000       0.000       0.000       0.000       0.000    
   5   8.5000E-09  1.1000E-09  1.1000E-09  1.1000E-09  1.1000E-09   0.000       0.000       0.000       0.000       0.000    
   6   8.5000E-09  5.2000E-09  2.1000E-09  1.1000E-09  1.5000E-09   0.000       0.000       0.000       0.000       0.000    
   7   8.5000E-09  5.2000E-09  2.1000E-09  1.2000E-09  2.0000E-09   0.000       0.000       0.000       0.000       0.000    
   8   5.0000E-10  5.2000E-09  2.1000E-09  1.2000E-09  5.0000E-09   0.000       0.000       0.000       0.000       0.000    
   9   5.0000E-10  5.2000E-09  2.1000E-09  1.2000E-09  5.0000E-09   0.000       0.000       0.000       0.000       0.000    
  10   5.0000E-10  5.2000E-09  2.1000E-09  1.2000E-09  5.8000E-09   0.000       0.000       0.000       0.000       0.000    
  11   1.0000E-10  1.1000E-09  1.1000E-09  1.2000E-09  5.0000E-09   0.000       0.000       0.000       0.000       0.000    
  12   1.1000E-09  1.1000E-09  1.1000E-09  1.1000E-09  2.0000E-09   0.000       0.000       0.000       0.000       0.000    
  13   1.1000E-09  2.2000E-09  2.2000E-09  2.1000E-09  1.0000E-09   0.000       0.000       0.000       0.000       0.000    
  14   2.0000E-10  5.5000E-09  5.5000E-09  5.2000E-09  1.0000E-09   0.000       0.000       0.000       0.000       0.000    
  15    0.000      8.8000E-09  8.8000E-09   0.000       0.000       0.000       0.000       0.000       0.000       0.000    

                  ET RATE =  1.500000E-07

 USING ET EXTINCTION DEPTH FROM PREVIOUS STRESS PERIOD. CURRENT PERIOD IS:      31

 USING EXTINCTION WATER CONTENT FROM PREVIOUS STRESS PERIOD. CURRENT PERIOD IS:      31

 USING AIR ENTRY PRESSURE FROM PREVIOUS STRESS PERIOD. CURRENT PERIOD IS:      31

 USING ROOT PRESSURE HEAD FROM PREVIOUS STRESS PERIOD. CURRENT PERIOD IS:      31

 USING ROOT ACTIVITY FROM PREVIOUS STRESS PERIOD. CURRENT PERIOD IS:      31

 PROCESSING AG STRESS PERIOD DATA

 READING AG STRESS PERIOD DATA

 READING IRRIGATION SEGMENT

 READING IRRIGATION WELL

 READING SUPPLEMENTAL WELL

 END PROCESSING AG STRESS PERIOD DATA OPTIONS
 
 SOLVING FOR HEAD 
                                                   Max.-Head-Change                         Max.-Flux-Residual
  Residual-Control   Outer-Iter.   Inner-Iter.     Column Row Layer    Maximum-Head-Change  Column Row Layer    Maximum-Flux-Residual          L2-NORM 
          0                 1           2             3   13     1      -0.4247863509E-02       3   13    1        -0.2750077800E+00      0.8089806232E+00
          0                 2           2             4    7     1      -0.4901179229E-01       4    7    1        -0.2632234790E+01      0.6461246835E+01
          0                 3           2             4    7     1       0.5065099805E-01       4    7    1         0.2796322969E+01      0.6861861982E+01
          0                 4           2             4    7     1      -0.2015241044E-02       4    7    1        -0.1143723727E+00      0.2722633630E+00
          0                 5           1             5    8     1      -0.1538807201E-03       5    8    1        -0.9273032188E-02      0.1025130061E-01
          0                 6           1             5    8     1      -0.1684646713E-04       5    8    1        -0.1010728226E-02      0.1017935328E-02

    ------------------------------------------------
       NWT REQUIRED            6 OUTER ITERATIONS 
       AND A TOTAL OF         10 INNER ITERATIONS.
    ------------------------------------------------

 NO OUTPUT CONTROL FOR STRESS PERIOD   31   TIME STEP    1
 
 SOLVING FOR HEAD 
                                                   Max.-Head-Change                         Max.-Flux-Residual
  Residual-Control   Outer-Iter.   Inner-Iter.     Column Row Layer    Maximum-Head-Change  Column Row Layer    Maximum-Flux-Residual          L2-NORM 
          0                 1           2             4    7     1       0.3842613207E-02       3   13    1        -0.2266599749E+00      0.7460483285E+00
          0                 2           2             4    7     1      -0.5484383822E-02       4    7    1        -0.2945456188E+00      0.7117498804E+00
          0                 3           2             4    7     1       0.4825068961E-02       4    7    1         0.2663892911E+00      0.6462595578E+00
          0                 4           2             4    7     1      -0.1959463170E-03       4    7    1        -0.1112670517E-01      0.2565657380E-01
          0                 5           1             2   13     1      -0.6059641993E-04       4   13    1        -0.3860422656E-02      0.7706447299E-02

    ------------------------------------------------
       NWT REQUIRED            5 OUTER ITERATIONS 
       AND A TOTAL OF          9 INNER ITERATIONS.
    ------------------------------------------------

 NO OUTPUT CONTROL FOR STRESS PERIOD   31   TIME STEP    2
 
 SOLVING FOR HEAD 
                                                   Max.-Head-Change                         Max.-Flux-Residual
  Residual-Control   Outer-Iter.   Inner-Iter.     Column Row Layer    Maximum-Head-Change  Column Row Layer    Maximum-Flux-Residual          L2-NORM 
          0                 1           2             4    7     1       0.3826471385E-02       4    7    1         0.1998052251E+00      0.7254591830E+00
          0                 2           2             4    7     1      -0.5822257016E-01       4    7    1        -0.3126909123E+01      0.7678239698E+01
          0                 3           2             4    7     1       0.6024225983E-01       4    7    1         0.3325808881E+01      0.8162258184E+01
          0                 4           2             4    7     1      -0.2397286926E-02       4    6    1        -0.1377998360E+00      0.3255846245E+00
          0                 5           1             5    8     1      -0.1898921741E-03       5    8    1        -0.1144108925E-01      0.1255678035E-01
          0                 6           1             5    8     1      -0.2078889349E-04       5    8    1        -0.1247230740E-02      0.1255138035E-02

    ------------------------------------------------
       NWT REQUIRED            6 OUTER ITERATIONS 
       AND A TOTAL OF         10 INNER ITERATIONS.
    ------------------------------------------------

 NO OUTPUT CONTROL FOR STRESS PERIOD   31   TIME STEP    3
 
 SOLVING FOR HEAD 
                                                   Max.-Head-Change                         Max.-Flux-Residual
  Residual-Control   Outer-Iter.   Inner-Iter.     Column Row Layer    Maximum-Head-Change  Column Row Layer    Maximum-Flux-Residual          L2-NORM 
          0                 1           2             1    1     1       0.3817378662E-02       4    7    1         0.1988371798E+00      0.7159928616E+00
          0                 2           2             4    7     1      -0.1301340053E-01       4    7    1        -0.6988987119E+00      0.1707446840E+01
          0                 3           2             4    7     1       0.1264739663E-01       4    7    1         0.6982407987E+00      0.1707358155E+01
          0                 4           2             4    7     1      -0.4447641320E-03       4    7    1        -0.2524709376E-01      0.5694404077E-01
          0                 5           1             2   13     1      -0.5460893877E-04       4   13    1        -0.3631078149E-02      0.8241025170E-02

    ------------------------------------------------
       NWT REQUIRED            5 OUTER ITERATIONS 
       AND A TOTAL OF          9 INNER ITERATIONS.
    ------------------------------------------------

 NO OUTPUT CONTROL FOR STRESS PERIOD   31   TIME STEP    4
 
 SOLVING FOR HEAD 
                                                   Max.-Head-Change                         Max.-Flux-Residual
  Residual-Control   Outer-Iter.   Inner-Iter.     Column Row Layer    Maximum-Head-Change  Column Row Layer    Maximum-Flux-Residual          L2-NORM 
          0                 1           2             1    1     1       0.3813377291E-02       4    7    1         0.1980169636E+00      0.7178257252E+00
          0                 2           2             4    7     1      -0.5457701970E-01       4    7    1        -0.2931119773E+01      0.7199256568E+01
          0                 3           2             4    7     1       0.5645081512E-01       4    7    1         0.3116493515E+01      0.7649219851E+01
          0                 4           2             4    7     1      -0.2246425479E-02       4    6    1        -0.1292482084E+00      0.3023043891E+00
          0                 5           1             5    8     1      -0.1758773746E-03       5    8    1        -0.1059729018E-01      0.1128838731E-01
          0                 6           1             5    8     1      -0.1925457527E-04       5    8    1        -0.1155188707E-02      0.1156516962E-02

    ------------------------------------------------
       NWT REQUIRED            6 OUTER ITERATIONS 
       AND A TOTAL OF         10 INNER ITERATIONS.
    ------------------------------------------------

 NO OUTPUT CONTROL FOR STRESS PERIOD   31   TIME STEP    5
 
 SOLVING FOR HEAD 
                                                   Max.-Head-Change                         Max.-Flux-Residual
  Residual-Control   Outer-Iter.   Inner-Iter.     Column Row Layer    Maximum-Head-Change  Column Row Layer    Maximum-Flux-Residual          L2-NORM 
          0                 1           2             4   13     1       0.3982894822E-02       4   13    1         0.2299846703E+00      0.7624356249E+00
          0                 2           2             4    7     1      -0.1497047685E-01       4    7    1        -0.8040044900E+00      0.1967956874E+01
          0                 3           2             4    7     1       0.1477771879E-01       4    7    1         0.8158506504E+00      0.1996422578E+01
          0                 4           2             4    7     1      -0.5573377062E-03       4    7    1        -0.3163573371E-01      0.7185599140E-01
          0                 5           1             4   13     1      -0.5182006694E-04       4   13    1        -0.3242514258E-02      0.5875550773E-02

    ------------------------------------------------
       NWT REQUIRED            5 OUTER ITERATIONS 
       AND A TOTAL OF          9 INNER ITERATIONS.
    ------------------------------------------------

 NO OUTPUT CONTROL FOR STRESS PERIOD   31   TIME STEP    6
 
 SOLVING FOR HEAD 
                                                   Max.-Head-Change                         Max.-Flux-Residual
  Residual-Control   Outer-Iter.   Inner-Iter.     Column Row Layer    Maximum-Head-Change  Column Row Layer    Maximum-Flux-Residual          L2-NORM 
          0                 1           2             4   13     1       0.3963041116E-02       4   13    1         0.2287406144E+00      0.7632591306E+00
          0                 2           2             4    7     1      -0.5049524417E-01       4    7    1        -0.2711902718E+01      0.6661771910E+01
          0                 3           2             4    7     1       0.5220487342E-01       4    7    1         0.2882109548E+01      0.7073551455E+01
          0                 4           2             4    7     1      -0.2077072630E-02       4    7    1        -0.1178812108E+00      0.2793226594E+00
          0                 5           1             5    8     1      -0.1602299035E-03       5    8    1        -0.9655178099E-02      0.1032368993E-01
          0                 6           1             5    8     1      -0.1754151919E-04       5    8    1        -0.1052423990E-02      0.1053560776E-02

    ------------------------------------------------
       NWT REQUIRED            6 OUTER ITERATIONS 
       AND A TOTAL OF         10 INNER ITERATIONS.
    ------------------------------------------------

 NO OUTPUT CONTROL FOR STRESS PERIOD   31   TIME STEP    7
 
 SOLVING FOR HEAD 
                                                   Max.-Head-Change                         Max.-Flux-Residual
  Residual-Control   Outer-Iter.   Inner-Iter.     Column Row Layer    Maximum-Head-Change  Column Row Layer    Maximum-Flux-Residual          L2-NORM 
          0                 1           2             4   13     1       0.4810194901E-02       4   13    1         0.2774202009E+00      0.8088833273E+00
          0                 2           2             4    7     1      -0.2101802624E-01       4    7    1        -0.1128794392E+01      0.2768172555E+01
          0                 3           2             4    7     1       0.2084351774E-01       4    7    1         0.1150728522E+01      0.2819708479E+01
          0                 4           2             4    7     1      -0.3888405082E-03       4    7    1        -0.2207410859E-01      0.4992461245E-01
          0                 5           1             4    7     1       0.5786374593E-04       4    7    1         0.3375055146E-02      0.8666098304E-02

    ------------------------------------------------
       NWT REQUIRED            5 OUTER ITERATIONS 
       AND A TOTAL OF          9 INNER ITERATIONS.
    ------------------------------------------------

 NO OUTPUT CONTROL FOR STRESS PERIOD   31   TIME STEP    8
 
 SOLVING FOR HEAD 
                                                   Max.-Head-Change                         Max.-Flux-Residual
  Residual-Control   Outer-Iter.   Inner-Iter.     Column Row Layer    Maximum-Head-Change  Column Row Layer    Maximum-Flux-Residual          L2-NORM 
          0                 1           2             4   13     1       0.4864318126E-02       4   13    1         0.2805217358E+00      0.8121745045E+00
          0                 2           2             4    7     1      -0.4646416791E-01       4    7    1        -0.2495409136E+01      0.6130501768E+01
          0                 3           2             4    7     1       0.4801217756E-01       4    7    1         0.2650642025E+01      0.6504995103E+01
          0                 4           2             4    7     1      -0.1910244800E-02       4    7    1        -0.1084137495E+00      0.2565034909E+00
          0                 5           1             5    8     1      -0.1448926274E-03       5    8    1        -0.8731713409E-02      0.9356967183E-02
          0                 6           1             5    8     1      -0.1586242447E-04       5    8    1        -0.9516960686E-03      0.9527502054E-03

    ------------------------------------------------
       NWT REQUIRED            6 OUTER ITERATIONS 
       AND A TOTAL OF         10 INNER ITERATIONS.
    ------------------------------------------------

 NO OUTPUT CONTROL FOR STRESS PERIOD   31   TIME STEP    9
 
 SOLVING FOR HEAD 
                                                   Max.-Head-Change                         Max.-Flux-Residual
  Residual-Control   Outer-Iter.   Inner-Iter.     Column Row Layer    Maximum-Head-Change  Column Row Layer    Maximum-Flux-Residual          L2-NORM 
          0                 1           2             4   13     1       0.5529846761E-02       4   13    1         0.3188203681E+00      0.8542820055E+00
          0                 2           2             4    7     1      -0.3930460268E-01       4    7    1        -0.2110896387E+01      0.5185406360E+01
          0                 3           2             4    7     1       0.4056145994E-01       4    7    1         0.2239307064E+01      0.5494360004E+01
          0                 4           2             4    7     1      -0.1613779787E-02       4    7    1        -0.9158945650E-01      0.2158935070E+00
          0                 5           1             5    8     1      -0.1172426549E-03       5    8    1        -0.7066982105E-02      0.7617069809E-02
          0                 6           1             5    8     1      -0.1283538031E-04       5    8    1        -0.7701057862E-03      0.7710159844E-03

    ------------------------------------------------
       NWT REQUIRED            6 OUTER ITERATIONS 
       AND A TOTAL OF         10 INNER ITERATIONS.
    ------------------------------------------------

 NO OUTPUT CONTROL FOR STRESS PERIOD   31   TIME STEP   10
 
 SOLVING FOR HEAD 
                                                   Max.-Head-Change                         Max.-Flux-Residual
  Residual-Control   Outer-Iter.   Inner-Iter.     Column Row Layer    Maximum-Head-Change  Column Row Layer    Maximum-Flux-Residual          L2-NORM 
          0                 1           2             4   13     1       0.5956923752E-02       4   13    1         0.3434350134E+00      0.8822946743E+00
          0                 2           2             4    7     1      -0.1606664681E-01       4    7    1        -0.8628745611E+00      0.2115874163E+01
          0                 3           2             4    7     1       0.1598444946E-01       4    7    1         0.8824714035E+00      0.2160267453E+01
          0                 4           2             4    7     1      -0.6365248778E-03       4    7    1        -0.3612947150E-01      0.8257252254E-01
          0                 5           1             4   13     1      -0.4961291114E-04       4   13    1        -0.3104213700E-02      0.5778552670E-02

    ------------------------------------------------
       NWT REQUIRED            5 OUTER ITERATIONS 
       AND A TOTAL OF          9 INNER ITERATIONS.
    ------------------------------------------------

 NO OUTPUT CONTROL FOR STRESS PERIOD   31   TIME STEP   11
 
 SOLVING FOR HEAD 
                                                   Max.-Head-Change                         Max.-Flux-Residual
  Residual-Control   Outer-Iter.   Inner-Iter.     Column Row Layer    Maximum-Head-Change  Column Row Layer    Maximum-Flux-Residual          L2-NORM 
          0                 1           2             4   13     1       0.5774959735E-02       4   13    1         0.3330112021E+00      0.8672328649E+00
          0                 2           2             4    7     1      -0.4975465268E-01       4    7    1        -0.2672128269E+01      0.6566685809E+01
          0                 3           2             4    7     1       0.5144201117E-01       4    7    1         0.2839994928E+01      0.6970438601E+01
          0                 4           2             4    7     1      -0.2046721101E-02       4    7    1        -0.1161586402E+00      0.2753049104E+00
          0                 5           1             5    8     1      -0.1581614356E-03       5    8    1        -0.9530473678E-02      0.1018892716E-01
          0                 6           1             5    8     1      -0.1731503536E-04       5    8    1        -0.1038836482E-02      0.1039961535E-02

    ------------------------------------------------
       NWT REQUIRED            6 OUTER ITERATIONS 
       AND A TOTAL OF         10 INNER ITERATIONS.
    ------------------------------------------------

 NO OUTPUT CONTROL FOR STRESS PERIOD   31   TIME STEP   12
 
 SOLVING FOR HEAD 
                                                   Max.-Head-Change                         Max.-Flux-Residual
  Residual-Control   Outer-Iter.   Inner-Iter.     Column Row Layer    Maximum-Head-Change  Column Row Layer    Maximum-Flux-Residual          L2-NORM 
          0                 1           2             4   13     1       0.6434195649E-02       4   13    1         0.3709830074E+00      0.9135814878E+00
          0                 2           2             4    7     1      -0.2175554820E-01       4    7    1        -0.1168403128E+01      0.2868113739E+01
          0                 3           2             4    7     1       0.2192608275E-01       4    7    1         0.1210494548E+01      0.2966512431E+01
          0                 4           2             4    7     1      -0.5565935394E-03       4    7    1        -0.3159437697E-01      0.7223159416E-01
          0                 5           1             4    7     1       0.1784448332E-04       4    7    1         0.1041425978E-02      0.2616914189E-02

    ------------------------------------------------
       NWT REQUIRED            5 OUTER ITERATIONS 
       AND A TOTAL OF          9 INNER ITERATIONS.
    ------------------------------------------------

 NO OUTPUT CONTROL FOR STRESS PERIOD   31   TIME STEP   13
 
 SOLVING FOR HEAD 
                                                   Max.-Head-Change                         Max.-Flux-Residual
  Residual-Control   Outer-Iter.   Inner-Iter.     Column Row Layer    Maximum-Head-Change  Column Row Layer    Maximum-Flux-Residual          L2-NORM 
          0                 1           2             4   13     1       0.6343074396E-02       4   13    1         0.3657963544E+00      0.9038881945E+00
          0                 2           2             4    7     1      -0.4607995848E-01       4    7    1        -0.2474774882E+01      0.6081978502E+01
          0                 3           2             4    7     1       0.4762022169E-01       4    7    1         0.2629004086E+01      0.6452159191E+01
          0                 4           2             4    7     1      -0.1894652099E-02       4    7    1        -0.1075287185E+00      0.2545130298E+00
          0                 5           1             5    8     1      -0.1442679320E-03       5    8    1        -0.8693916830E-02      0.9312131692E-02
          0                 6           1             5    8     1      -0.1579400359E-04       5    8    1        -0.9475902639E-03      0.9486114710E-03

    ------------------------------------------------
       NWT REQUIRED            6 OUTER ITERATIONS 
       AND A TOTAL OF         10 INNER ITERATIONS.
    ------------------------------------------------

 NO OUTPUT CONTROL FOR STRESS PERIOD   31   TIME STEP   14
 
 SOLVING FOR HEAD 
                                                   Max.-Head-Change                         Max.-Flux-Residual
  Residual-Control   Outer-Iter.   Inner-Iter.     Column Row Layer    Maximum-Head-Change  Column Row Layer    Maximum-Flux-Residual          L2-NORM 
          0                 1           2             4   13     1       0.6857687539E-02       4   13    1         0.3954556506E+00      0.9411575703E+00
          0                 2           2             4    7     1      -0.3916991618E-01       4    7    1        -0.2103662917E+01      0.5169637216E+01
          0                 3           2             4    7     1       0.4042916037E-01       4    7    1         0.2232003895E+01      0.5476703714E+01
          0                 4           2             4    7     1      -0.1608518888E-02       4    7    1        -0.9129074558E-01      0.2153091824E+00
          0                 5           1             5    8     1      -0.1175767975E-03       5    8    1        -0.7086912761E-02      0.7632391160E-02
          0                 6           1             5    8     1      -0.1287193600E-04       5    8    1        -0.7722971582E-03      0.7732112357E-03

    ------------------------------------------------
       NWT REQUIRED            6 OUTER ITERATIONS 
       AND A TOTAL OF         10 INNER ITERATIONS.
    ------------------------------------------------

 NO OUTPUT CONTROL FOR STRESS PERIOD   31   TIME STEP   15
 
 SOLVING FOR HEAD 
                                                   Max.-Head-Change                         Max.-Flux-Residual
  Residual-Control   Outer-Iter.   Inner-Iter.     Column Row Layer    Maximum-Head-Change  Column Row Layer    Maximum-Flux-Residual          L2-NORM 
          0                 1           2             4   13     1       0.7152900835E-02       4   13    1         0.4125074057E+00      0.9615002483E+00
          0                 2           2             4    7     1      -0.1726853416E-01       4    7    1        -0.9274228422E+00      0.2276542526E+01
          0                 3           2             4    7     1       0.1721470191E-01       4    7    1         0.9503908084E+00      0.2327425685E+01
          0                 4           2             4    7     1      -0.6883711894E-03       4    7    1        -0.3907145249E-01      0.8968798339E-01
          0                 5           1             5    8     1      -0.5461859322E-04       4   13    1        -0.3362291399E-02      0.6744333307E-02

    ------------------------------------------------
       NWT REQUIRED            5 OUTER ITERATIONS 
       AND A TOTAL OF          9 INNER ITERATIONS.
    ------------------------------------------------

 NO OUTPUT CONTROL FOR STRESS PERIOD   31   TIME STEP   16
 
 SOLVING FOR HEAD 
                                                   Max.-Head-Change                         Max.-Flux-Residual
  Residual-Control   Outer-Iter.   Inner-Iter.     Column Row Layer    Maximum-Head-Change  Column Row Layer    Maximum-Flux-Residual          L2-NORM 
          0                 1           2             4   13     1       0.6883356052E-02       4   13    1         0.3970538191E+00      0.9371664627E+00
          0                 2           2             4    7     1      -0.4920807702E-01       4    7    1        -0.2642773951E+01      0.6496199802E+01
          0                 3           2             4    7     1       0.5088085088E-01       4    7    1         0.2809015715E+01      0.6894625557E+01
          0                 4           2             4    7     1      -0.2024395414E-02       4    7    1        -0.1148915303E+00      0.2723816290E+00
          0                 5           1             5    8     1      -0.1568494266E-03       5    8    1        -0.9451311123E-02      0.1010082682E-01
          0                 6           1             5    8     1      -0.1717136709E-04       5    8    1        -0.1030216945E-02      0.1031296802E-02

    ------------------------------------------------
       NWT REQUIRED            6 OUTER ITERATIONS 
       AND A TOTAL OF         10 INNER ITERATIONS.
    ------------------------------------------------

 NO OUTPUT CONTROL FOR STRESS PERIOD   31   TIME STEP   17
 
 SOLVING FOR HEAD 
                                                   Max.-Head-Change                         Max.-Flux-Residual
  Residual-Control   Outer-Iter.   Inner-Iter.     Column Row Layer    Maximum-Head-Change  Column Row Layer    Maximum-Flux-Residual          L2-NORM 
          0                 1           2             4   13     1       0.7421958910E-02       4   13    1         0.4280859856E+00      0.9783813265E+00
          0                 2           2             4    7     1      -0.2148717043E-01       4    7    1        -0.1153989109E+01      0.2834265170E+01
          0                 3           2             4    7     1       0.2115993052E-01       4    7    1         0.1168197402E+01      0.2863231261E+01
          0                 4           2             4    7     1      -0.2286882508E-03       4    7    1        -0.1298514770E-01      0.2994711045E-01
          0                 5           2             5    8     1       0.1751742395E-03       5    8    1         0.9914167992E-02      0.2402979579E-01
          0                 6           1             5    8     1       0.6041067377E-04       5    8    1         0.3438199537E-02      0.7040633788E-02

    ------------------------------------------------
       NWT REQUIRED            6 OUTER ITERATIONS 
       AND A TOTAL OF         11 INNER ITERATIONS.
    ------------------------------------------------

 NO OUTPUT CONTROL FOR STRESS PERIOD   31   TIME STEP   18
 
 SOLVING FOR HEAD 
                                                   Max.-Head-Change                         Max.-Flux-Residual
  Residual-Control   Outer-Iter.   Inner-Iter.     Column Row Layer    Maximum-Head-Change  Column Row Layer    Maximum-Flux-Residual          L2-NORM 
          0                 1           2             4   13     1       0.7235635512E-02       4   13    1         0.4174137640E+00      0.9605045168E+00
          0                 2           2             4    7     1      -0.4551612706E-01       4    7    1        -0.2444493801E+01      0.6008927773E+01
          0                 3           2             4    7     1       0.4704102416E-01       4    7    1         0.2597028972E+01      0.6373864778E+01
          0                 4           2             4    7     1      -0.1871608711E-02       4    7    1        -0.1062208789E+00      0.2514850022E+00
          0                 5           1             5    8     1      -0.1428721848E-03       5    8    1        -0.8609714956E-02      0.9219475830E-02
          0                 6           1             5    8     1      -0.1564117179E-04       5    8    1        -0.9384208902E-03      0.9394600813E-03

    ------------------------------------------------
       NWT REQUIRED            6 OUTER ITERATIONS 
       AND A TOTAL OF         10 INNER ITERATIONS.
    ------------------------------------------------

 NO OUTPUT CONTROL FOR STRESS PERIOD   31   TIME STEP   19
 
 SOLVING FOR HEAD 
                                                   Max.-Head-Change                         Max.-Flux-Residual
  Residual-Control   Outer-Iter.   Inner-Iter.     Column Row Layer    Maximum-Head-Change  Column Row Layer    Maximum-Flux-Residual          L2-NORM 
          0                 1           2             4   13     1       0.7649343799E-02       4   13    1         0.4412549490E+00      0.9924583027E+00
          0                 2           2             4    7     1      -0.3872100852E-01       4    7    1        -0.2079553871E+01      0.5111643060E+01
          0                 3           2             4    7     1       0.3996951808E-01       4    7    1         0.2206628934E+01      0.5414595857E+01
          0                 4           2             4    7     1      -0.1590232713E-02       4    7    1        -0.9025287070E-01      0.2127572805E+00
          0                 5           1             5    8     1      -0.1166180580E-03       5    8    1        -0.7029020669E-02      0.7559684563E-02
          0                 6           1             5    8     1      -0.1276695172E-04       5    8    1        -0.7659978542E-03      0.7669093793E-03

    ------------------------------------------------
       NWT REQUIRED            6 OUTER ITERATIONS 
       AND A TOTAL OF         10 INNER ITERATIONS.
    ------------------------------------------------

 NO OUTPUT CONTROL FOR STRESS PERIOD   31   TIME STEP   20
 
 SOLVING FOR HEAD 
                                                   Max.-Head-Change                         Max.-Flux-Residual
  Residual-Control   Outer-Iter.   Inner-Iter.     Column Row Layer    Maximum-Head-Change  Column Row Layer    Maximum-Flux-Residual          L2-NORM 
          0                 1           2             4   13     1       0.7862920281E-02       4   13    1         0.4531528536E+00      0.1006714643E+01
          0                 2           2             4    7     1      -0.1863637611E-01       4    7    1        -0.1000884028E+01      0.2462693181E+01
          0                 3           2             4    7     1       0.1868131332E-01       4    7    1         0.1031359093E+01      0.2526440595E+01
          0                 4           2             4    7     1      -0.7327733960E-03       4    7    1        -0.4159124517E-01      0.9578471029E-01
          0                 5           1             4   13     1      -0.4842878974E-04       4   13    1        -0.3029636026E-02      0.5872102745E-02

    ------------------------------------------------
       NWT REQUIRED            5 OUTER ITERATIONS 
       AND A TOTAL OF          9 INNER ITERATIONS.
    ------------------------------------------------

 NO OUTPUT CONTROL FOR STRESS PERIOD   31   TIME STEP   21
 
 SOLVING FOR HEAD 
                                                   Max.-Head-Change                         Max.-Flux-Residual
  Residual-Control   Outer-Iter.   Inner-Iter.     Column Row Layer    Maximum-Head-Change  Column Row Layer    Maximum-Flux-Residual          L2-NORM 
          0                 1           2             4   13     1       0.7548572106E-02       4   13    1         0.4355532204E+00      0.9789225252E+00
          0                 2           2             4    7     1      -0.4881299625E-01       4    7    1        -0.2621556170E+01      0.6445078811E+01
          0                 3           2             4    7     1       0.5047715483E-01       4    7    1         0.2786729680E+01      0.6840136290E+01
          0                 4           2             4    7     1      -0.2008335253E-02       4    7    1        -0.1139799887E+00      0.2699683798E+00
          0                 5           1             5    8     1      -0.1561120248E-03       5    8    1        -0.9406746164E-02      0.1003620342E-01
          0                 6           1             5    8     1      -0.1709060659E-04       5    8    1        -0.1025371203E-02      0.1026446578E-02

    ------------------------------------------------
       NWT REQUIRED            6 OUTER ITERATIONS 
       AND A TOTAL OF         10 INNER ITERATIONS.
    ------------------------------------------------

 NO OUTPUT CONTROL FOR STRESS PERIOD   31   TIME STEP   22
 
 SOLVING FOR HEAD 
                                                   Max.-Head-Change                         Max.-Flux-Residual
  Residual-Control   Outer-Iter.   Inner-Iter.     Column Row Layer    Maximum-Head-Change  Column Row Layer    Maximum-Flux-Residual          L2-NORM 
          0                 1           2             4   13     1       0.8019542843E-02       4   13    1         0.4622455697E+00      0.1015354484E+01
          0                 2           2             4    7     1      -0.2164262422E-01       4    7    1        -0.1162337792E+01      0.2859652255E+01
          0                 3           2             4    7     1       0.2135795612E-01       4    7    1         0.1179130201E+01      0.2890131051E+01
          0                 4           2             4    7     1      -0.2594757637E-03       4    7    1        -0.1473216553E-01      0.3356542004E-01
          0                 5           2             5    8     1       0.1679368141E-03       5    8    1         0.9499103197E-02      0.2339722385E-01
          0                 6           1             5    8     1       0.5969681158E-04       5    8    1         0.3396854413E-02      0.7002045359E-02

    ------------------------------------------------
       NWT REQUIRED            6 OUTER ITERATIONS 
       AND A TOTAL OF         11 INNER ITERATIONS.
    ------------------------------------------------

 NO OUTPUT CONTROL FOR STRESS PERIOD   31   TIME STEP   23
 
 SOLVING FOR HEAD 
                                                   Max.-Head-Change                         Max.-Flux-Residual
  Residual-Control   Outer-Iter.   Inner-Iter.     Column Row Layer    Maximum-Head-Change  Column Row Layer    Maximum-Flux-Residual          L2-NORM 
          0                 1           2             4   13     1       0.7770762653E-02       4   13    1         0.4483734299E+00      0.9948016000E+00
          0                 2           2             4    7     1      -0.4506227845E-01       4    7    1        -0.2420119734E+01      0.5949967351E+01
          0                 3           2             4    7     1       0.4657605502E-01       4    7    1         0.2571360092E+01      0.6311033920E+01
          0                 4           2             4    7     1      -0.1853110436E-02       4    7    1        -0.1051709760E+00      0.2486912595E+00
          0                 5           1             5    8     1      -0.1418831095E-03       5    8    1        -0.8550001447E-02      0.9136806454E-02
          0                 6           1             5    8     1      -0.1553286152E-04       5    8    1        -0.9319223550E-03      0.9328863506E-03

    ------------------------------------------------
       NWT REQUIRED            6 OUTER ITERATIONS 
       AND A TOTAL OF         10 INNER ITERATIONS.
    ------------------------------------------------

 NO OUTPUT CONTROL FOR STRESS PERIOD   31   TIME STEP   24
 
 SOLVING FOR HEAD 
                                                   Max.-Head-Change                         Max.-Flux-Residual
  Residual-Control   Outer-Iter.   Inner-Iter.     Column Row Layer    Maximum-Head-Change  Column Row Layer    Maximum-Flux-Residual          L2-NORM 
          0                 1           2             4   13     1       0.8127414825E-02       4   13    1         0.4685050551E+00      0.1021137137E+01
          0                 2           2             4    7     1      -0.3834046804E-01       4    7    1        -0.2059116694E+01      0.5065419787E+01
          0                 3           2             4    7     1       0.3958081791E-01       4    7    1         0.2185170485E+01      0.5361950941E+01
          0                 4           2             4    7     1      -0.1574769253E-02       4    7    1        -0.8937518753E-01      0.2104109986E+00
          0                 5           1             5    8     1      -0.1159033424E-03       5    8    1        -0.6985824980E-02      0.7497070475E-02
          0                 6           1             5    8     1      -0.1268868355E-04       5    8    1        -0.7613012722E-03      0.7621826422E-03

    ------------------------------------------------
       NWT REQUIRED            6 OUTER ITERATIONS 
       AND A TOTAL OF         10 INNER ITERATIONS.
    ------------------------------------------------

 NO OUTPUT CONTROL FOR STRESS PERIOD   31   TIME STEP   25
 
 SOLVING FOR HEAD 
                                                   Max.-Head-Change                         Max.-Flux-Residual
  Residual-Control   Outer-Iter.   Inner-Iter.     Column Row Layer    Maximum-Head-Change  Column Row Layer    Maximum-Flux-Residual          L2-NORM 
          0                 1           2             4   13     1       0.8275906435E-02       4   13    1         0.4771129511E+00      0.1030189366E+01
          0                 2           2             4    7     1      -0.1985220816E-01       4    7    1        -0.1066181555E+01      0.2623166765E+01
          0                 3           2             4    7     1       0.1722891625E-01       4    7    1         0.9511758188E+00      0.2332326300E+01
          0                 4           2             4    7     1       0.1646409466E-02       5    8    1         0.9187336659E-01      0.2244840232E+00
          0                 5           2             5    8     1       0.6791520511E-03       5    8    1         0.3877203742E-01      0.7205483342E-01
          0                 6           2             5    8     1       0.2024984233E-03       5    8    1         0.1158949018E-01      0.1976606139E-01
          0                 7           1             5    8     1       0.5602749434E-04       5    8    1         0.3208314358E-02      0.5369368449E-02

    ------------------------------------------------
       NWT REQUIRED            7 OUTER ITERATIONS 
       AND A TOTAL OF         13 INNER ITERATIONS.
    ------------------------------------------------

 NO OUTPUT CONTROL FOR STRESS PERIOD   31   TIME STEP   26
 
 SOLVING FOR HEAD 
                                                   Max.-Head-Change                         Max.-Flux-Residual
  Residual-Control   Outer-Iter.   Inner-Iter.     Column Row Layer    Maximum-Head-Change  Column Row Layer    Maximum-Flux-Residual          L2-NORM 
          0                 1           2             4   13     1       0.7996629178E-02       4   13    1         0.4614183702E+00      0.1010047227E+01
          0                 2           2             4    7     1      -0.4378251547E-01       4    7    1        -0.2351389099E+01      0.5781351608E+01
          0                 3           2             4    7     1       0.4524845094E-01       4    7    1         0.2498066901E+01      0.6131084158E+01
          0                 4           2             4    7     1      -0.1800286743E-02       4    7    1        -0.1021731566E+00      0.2414055477E+00
          0                 5           1             5    8     1      -0.1374348975E-03       5    8    1        -0.8282077247E-02      0.8849088856E-02
          0                 6           1             5    8     1      -0.1504587021E-04       5    8    1        -0.9027070978E-03      0.9036656935E-03

    ------------------------------------------------
       NWT REQUIRED            6 OUTER ITERATIONS 
       AND A TOTAL OF         10 INNER ITERATIONS.
    ------------------------------------------------

 NO OUTPUT CONTROL FOR STRESS PERIOD   31   TIME STEP   27
 
 SOLVING FOR HEAD 
                                                   Max.-Head-Change                         Max.-Flux-Residual
  Residual-Control   Outer-Iter.   Inner-Iter.     Column Row Layer    Maximum-Head-Change  Column Row Layer    Maximum-Flux-Residual          L2-NORM 
          0                 1           2             4   13     1       0.8298982333E-02       4   13    1         0.4784471149E+00      0.1030939766E+01
          0                 2           2             4    7     1      -0.4178384141E-01       4    7    1        -0.2244047970E+01      0.5520497407E+01
          0                 3           2             4    7     1       0.4316950257E-01       4    7    1         0.2383293441E+01      0.5848980203E+01
          0                 4           2             4    7     1      -0.1717565570E-02       4    7    1        -0.9747872907E-01      0.2300606795E+00
          0                 5           1             5    8     1      -0.1298305528E-03       5    8    1        -0.7824211992E-02      0.8375420025E-02
          0                 6           1             5    8     1      -0.1421336908E-04       5    8    1        -0.8527654295E-03      0.8537960221E-03

    ------------------------------------------------
       NWT REQUIRED            6 OUTER ITERATIONS 
       AND A TOTAL OF         10 INNER ITERATIONS.
    ------------------------------------------------

 NO OUTPUT CONTROL FOR STRESS PERIOD   31   TIME STEP   28
 
 SOLVING FOR HEAD 
                                                   Max.-Head-Change                         Max.-Flux-Residual
  Residual-Control   Outer-Iter.   Inner-Iter.     Column Row Layer    Maximum-Head-Change  Column Row Layer    Maximum-Flux-Residual          L2-NORM 
          0                 1           2             4   13     1       0.8514909479E-02       4   13    1         0.4909555685E+00      0.1044740312E+01
          0                 2           2             4    7     1      -0.1578407946E-01       4    7    1        -0.8476977932E+00      0.2085951609E+01
          0                 3           2             4    7     1       0.1570314138E-01       4    7    1         0.8669415812E+00      0.2122710879E+01
          0                 4           2             4    7     1      -0.6161957746E-03       4    7    1        -0.3497517448E-01      0.8011409044E-01
          0                 5           1             4   13     1      -0.5041342323E-04       4   13    1        -0.3154503444E-02      0.5886372962E-02

    ------------------------------------------------
       NWT REQUIRED            5 OUTER ITERATIONS 
       AND A TOTAL OF          9 INNER ITERATIONS.
    ------------------------------------------------

 NO OUTPUT CONTROL FOR STRESS PERIOD   31   TIME STEP   29
 
 SOLVING FOR HEAD 
                                                   Max.-Head-Change                         Max.-Flux-Residual
  Residual-Control   Outer-Iter.   Inner-Iter.     Column Row Layer    Maximum-Head-Change  Column Row Layer    Maximum-Flux-Residual          L2-NORM 
          0                 1           2             4   13     1       0.8068194078E-02       4   13    1         0.4655519267E+00      0.1013795463E+01
          0                 2           2             4    7     1      -0.4771464373E-01       4    7    1        -0.2562568782E+01      0.6301262335E+01
          0                 3           2             4    7     1       0.4934562877E-01       4    7    1         0.2724262504E+01      0.6687008353E+01
          0                 4           2             4    7     1      -0.1963316115E-02       4    7    1        -0.1114249629E+00      0.2637019953E+00
          0                 5           1             5    8     1      -0.1530730353E-03       5    8    1        -0.9223519779E-02      0.9827128289E-02
          0                 6           1             5    8     1      -0.1675785869E-04       5    8    1        -0.1005408307E-02      0.1006436125E-02

    ------------------------------------------------
       NWT REQUIRED            6 OUTER ITERATIONS 
       AND A TOTAL OF         10 INNER ITERATIONS.
    ------------------------------------------------

 NO OUTPUT CONTROL FOR STRESS PERIOD   31   TIME STEP   30



 STREAM LISTING     PERIOD     31   STEP       30

 LAYER ROW COL. STREAM  RCH.  FLOW INTO     FLOW TO   FLOW OUT OF   OVRLND.     DIRECT     STREAM       STREAM     STREAM     STREAM   STREAMBED  STREAMBED
                SEG.NO.  NO.  STRM. RCH.    AQUIFER    STRM. RCH.    RUNOFF     PRECIP       ET          HEAD       DEPTH      WIDTH   CONDCTNC.   GRADIENT

   1    1    1     1     1    6.2248E+01  3.7978E-01   6.1868E+01  0.000E+00  0.000E+00  0.000E+00  1.09460E+03  1.553E+00  1.854E+01  8.342E-02  1.518E+00
   1    2    2     1     2    6.1868E+01  5.8816E-01   6.1280E+01  0.000E+00  0.000E+00  0.000E+00  1.08961E+03  1.547E+00  1.848E+01  1.294E-01  1.516E+00
   1    3    3     1     3    6.1280E+01  5.0162E-01   6.0779E+01  0.000E+00  0.000E+00  0.000E+00  1.08396E+03  1.540E+00  1.841E+01  1.105E-01  1.513E+00
   1    3    4     1     4    6.0779E+01  4.6193E-01   6.0317E+01  0.000E+00  0.000E+00  0.000E+00  1.07894E+03  1.534E+00  1.836E+01  1.019E-01  1.511E+00
   1    4    5     2     1    5.8317E+01  3.9026E-01   5.7926E+01  0.000E+00  0.000E+00  0.000E+00  1.07394E+03  2.003E+00  1.200E+01  7.800E-02  1.668E+00
   1    5    6     2     2    5.7926E+01  2.9977E-01   5.7627E+01  0.000E+00  0.000E+00  0.000E+00  1.06851E+03  1.996E+00  1.200E+01  6.000E-02  1.665E+00
   1    6    6     2     3    5.7627E+01  2.9940E-01   5.7327E+01  0.000E+00  0.000E+00  0.000E+00  1.06378E+03  1.990E+00  1.200E+01  6.000E-02  1.663E+00
   1    7    6     2     4    5.7327E+01  2.9902E-01   5.7028E+01  0.000E+00  0.000E+00  0.000E+00  1.05906E+03  1.984E+00  1.200E+01  6.000E-02  1.661E+00
   1    8    6     2     5    5.7028E+01  2.9865E-01   5.6730E+01  0.000E+00  0.000E+00  0.000E+00  1.05434E+03  1.977E+00  1.200E+01  6.000E-02  1.659E+00
   1    3    5     3     1    2.0000E+00  2.8252E-01   1.7175E+00  0.000E+00  0.000E+00  0.000E+00  1.07555E+03  1.909E+00  9.636E+00  7.227E-02  1.955E+00
   1    3    6     3     2    1.7175E+00  2.4905E-01   1.4684E+00  0.000E+00  0.000E+00  0.000E+00  1.07264E+03  1.727E+00  8.909E+00  6.682E-02  1.864E+00
   1    3    7     3     3    1.4684E+00  1.9718E-01   1.2712E+00  0.000E+00  0.000E+00  0.000E+00  1.06987E+03  1.555E+00  8.218E+00  5.547E-02  1.777E+00
   1    4    8     3     4    1.2712E+00  2.2567E-01   1.0456E+00  0.000E+00  0.000E+00  0.000E+00  1.06682E+03  1.364E+00  7.455E+00  6.709E-02  1.682E+00
   1    5    8     3     5    1.0456E+00  1.5790E-01   8.8768E-01  0.000E+00  0.000E+00  0.000E+00  1.06362E+03  1.164E+00  6.655E+00  4.991E-02  1.582E+00
   1    6    8     3     6    8.8768E-01  5.5980E-02   8.3170E-01  0.000E+00  0.000E+00  0.000E+00  1.06158E+03  1.036E+00  6.145E+00  1.844E-02  1.518E+00
   1    5   10     4     1    1.0000E+01  9.0919E-02   9.9091E+00  0.000E+00  0.000E+00  0.000E+00  1.07836E+03  6.368E-01  1.000E+01  2.500E-02  1.212E+00
   1    5    9     4     2    9.9091E+00  1.8158E-01   9.7275E+00  0.000E+00  0.000E+00  0.000E+00  1.07154E+03  6.315E-01  1.000E+01  5.000E-02  1.211E+00
   1    6    8     4     3    9.7275E+00  1.2689E-01   9.6006E+00  0.000E+00  0.000E+00  0.000E+00  1.06381E+03  6.256E-01  1.000E+01  3.500E-02  1.209E+00
   1    6    8     5     1    1.0432E+01  2.2686E-01   1.0205E+01  0.000E+00  0.000E+00  0.000E+00  1.05868E+03  6.790E-01  1.542E+01  6.166E-02  1.226E+00
   1    7    7     5     2    1.0205E+01  2.7894E-01   9.9265E+00  0.000E+00  0.000E+00  0.000E+00  1.05417E+03  6.732E-01  1.519E+01  7.594E-02  1.224E+00
   1    8    7     5     3    9.9265E+00  1.9221E-01   9.7343E+00  0.000E+00  0.000E+00  0.000E+00  1.04992E+03  6.676E-01  1.497E+01  5.241E-02  1.223E+00
   1    8    6     5     4    9.7343E+00  1.3577E-01   9.5985E+00  0.000E+00  0.000E+00  0.000E+00  1.04691E+03  6.637E-01  1.482E+01  3.706E-02  1.221E+00
   1    9    6     6     1    3.5789E+01  2.7065E-01   3.5519E+01  0.000E+00  0.000E+00  0.000E+00  1.04424E+03  1.511E+00  1.200E+01  6.000E-02  1.504E+00
   1   10    7     6     2    3.5519E+01  2.7024E-01   3.5249E+01  0.000E+00  0.000E+00  0.000E+00  1.03969E+03  1.504E+00  1.200E+01  6.000E-02  1.501E+00
   1   11    7     6     3    3.5249E+01  2.6983E-01   3.4979E+01  0.000E+00  0.000E+00  0.000E+00  1.03513E+03  1.497E+00  1.200E+01  6.000E-02  1.499E+00
   1   12    7     6     4    3.4979E+01  2.6941E-01   3.4709E+01  0.000E+00  0.000E+00  0.000E+00  1.03058E+03  1.490E+00  1.200E+01  6.000E-02  1.497E+00
   1   13    7     6     5    3.4709E+01  9.0209E-03   3.4700E+01  0.000E+00  0.000E+00  0.000E+00  1.02740E+03  1.487E+00  1.200E+01  2.400E-02  1.253E-01
   1   14    9     7     1    1.5000E+02  1.3436E+00   1.4866E+02  0.000E+00  0.000E+00  0.000E+00  1.03987E+03  2.288E+00  5.529E+01  5.593E-01  8.008E-01
   1   13    8     7     2    1.4866E+02  1.8561E+00   1.4680E+02  0.000E+00  0.000E+00  0.000E+00  1.03478E+03  2.279E+00  5.526E+01  6.148E-01  1.006E+00
   1   13    7     7     3    1.4680E+02  1.4909E+00   1.4531E+02  0.000E+00  0.000E+00  0.000E+00  1.02969E+03  2.270E+00  5.522E+01  5.584E-01  8.899E-01
   1   13    6     8     1    1.8001E+02  9.7140E-01   1.7904E+02  0.000E+00  0.000E+00  0.000E+00  1.02489E+03  3.013E+00  4.369E+01  4.452E-01  7.273E-01
   1   13    5     8     2    1.7904E+02  2.0139E-01   1.7884E+02  0.000E+00  0.000E+00  0.000E+00  1.01863E+03  3.009E+00  4.364E+01  4.447E-01  1.510E-01
   1   13    4     8     3    1.7884E+02 -2.5073E+00   1.8134E+02  0.000E+00  0.000E+00  0.000E+00  1.01239E+03  3.017E+00  4.374E+01  4.458E+00 -1.875E-01
   1   13    3     8     4    1.8134E+02 -3.7535E+00   1.8510E+02  0.000E+00  0.000E+00  0.000E+00  1.00616E+03  3.036E+00  4.403E+01  4.486E+00 -2.789E-01
   1   13    2     8     5    1.8510E+02 -2.7559E+00   1.8785E+02  0.000E+00  0.000E+00  0.000E+00  9.99931E+02  3.056E+00  4.432E+01  4.516E+00 -2.034E-01
   1   13    1     8     6    1.8785E+02 -2.1148E+00   1.8997E+02  0.000E+00  0.000E+00  0.000E+00  9.94946E+02  3.071E+00  4.453E+01  2.723E+00 -2.589E-01
   1    8    6     9     1    3.0539E+01  0.0000E+00   3.0539E+01  0.000E+00  0.000E+00  0.000E+00  1.08318E+03  4.428E+00  4.000E+00  0.000E+00  2.476E+00
   1    8    5     9     2    3.0539E+01  0.0000E+00   3.0539E+01  0.000E+00  0.000E+00  0.000E+00  1.08268E+03  4.428E+00  4.000E+00  0.000E+00  2.476E+00





UNSATURATED ZONE PACKAGE VOLUMETRIC BUDGET FOR  TIME STEP    30 STRESS PERIOD   31
  ------------------------------------------------------------------------------



     CUMULATIVE VOLUMES      L**3       RATES FOR THIS TIME STEP      L**3/T
     ------------------                 ------------------------

           IN:                                      IN:
           ---                                      ---
        INFILTRATION =  1391956639.7554          INFILTRATION =          34.9467

          OUT:                                     OUT:
          ----                                     ----
              UZF ET =  1130347717.4272                UZF ET =          26.6342
        UZF RECHARGE =     7213923.5161          UZF RECHARGE =           0.0188

            IN - OUT =   254394998.8121              IN - OUT =           8.2937

          STORAGE:                                 STORAGE:
          --------                                 --------
      STORAGE CHANGE =   254395789.2896        STORAGE CHANGE =           8.2937

 PERCENT DISCREPANCY IS DIFFERENCE BETWEEN IN-OUT MINUS CHANGE IN STORAGE
 DIVIDED BY THE AVERAGE OF IN AND OUT TIMES 100

 PERCENT DISCREPANCY =          -0.00     PERCENT DISCREPANCY =           0.00






1
  VOLUMETRIC BUDGET FOR AGRICULTURAL FIELDS AT  END OF TIME STEP   30, STRESS PERIOD  31
  ------------------------------------------------------------------------------

     CUMULATIVE VOLUMES      L**3       RATES FOR THIS TIME STEP      L**3/T
     ------------------                 ------------------------

           IN:                                      IN:
           ---                                      ---
               AG WELLS  =   368529376.0000                 AG WELLS  =           0.0000
      DIVERSION SEGMENTS =   675912896.0000        DIVERSION SEGMENTS =          30.5386
           GW IRRIGATION =           0.0000             GW IRRIGATION =           0.0000
           SW IRRIGATION =           0.0000             SW IRRIGATION =           0.0000
        SYSTEM LOSSES GW =           0.0000          SYSTEM LOSSES GW =           0.0000
        SYSTEM LOSSES SW =           0.0000          SYSTEM LOSSES SW =           0.0000

                TOTAL IN =  1044442240.0000                  TOTAL IN =          30.5386

          OUT:                                     OUT:
          ----                                     ----
               AG WELLS  =           0.0000                 AG WELLS  =           0.0000
      DIVERSION SEGMENTS =           0.0000        DIVERSION SEGMENTS =           0.0000
           GW IRRIGATION =   368529376.0000             GW IRRIGATION =           0.0000
           SW IRRIGATION =   675926208.0000             SW IRRIGATION =          30.5392
        SYSTEM LOSSES GW =           0.0000          SYSTEM LOSSES GW =           0.0000
        SYSTEM LOSSES SW =           0.0000          SYSTEM LOSSES SW =           0.0000

               TOTAL OUT =  1044455552.0000                 TOTAL OUT =          30.5392

                IN - OUT =      -13312.0000                  IN - OUT =      -6.1035E-04

     PERCENT DISCREPANCY =          -0.00         PERCENT DISCREPANCY =          -0.00



1
  VOLUMETRIC BUDGET FOR ENTIRE MODEL AT END OF TIME STEP   30, STRESS PERIOD  31
  ------------------------------------------------------------------------------

     CUMULATIVE VOLUMES      L**3       RATES FOR THIS TIME STEP      L**3/T
     ------------------                 ------------------------

           IN:                                      IN:
           ---                                      ---
             STORAGE     =   633019968.0000               STORAGE     =           1.8446
       CONSTANT HEAD     =           0.0000         CONSTANT HEAD     =           0.0000
     HEAD DEP BOUNDS     =    22579146.0000       HEAD DEP BOUNDS     =           0.2863
      STREAM LEAKAGE     =   948406976.0000        STREAM LEAKAGE     =          12.8726
        UZF RECHARGE     =     7213924.0000          UZF RECHARGE     =       1.8806E-02
               GW ET     =           0.0000                 GW ET     =           0.0000
     SURFACE LEAKAGE     =           0.0000       SURFACE LEAKAGE     =           0.0000
           AG WELLS      =           0.0000             AG WELLS      =           0.0000

                TOTAL IN =  1611220096.0000                  TOTAL IN =          15.0224

          OUT:                                     OUT:
          ----                                     ----
             STORAGE     =   371775104.0000               STORAGE     =           3.5974
       CONSTANT HEAD     =           0.0000         CONSTANT HEAD     =           0.0000
     HEAD DEP BOUNDS     =    22978208.0000       HEAD DEP BOUNDS     =           0.2935
      STREAM LEAKAGE     =   845336768.0000        STREAM LEAKAGE     =          11.1316
        UZF RECHARGE     =           0.0000          UZF RECHARGE     =           0.0000
               GW ET     =     2603293.0000                 GW ET     =           0.0000
     SURFACE LEAKAGE     =           0.0000       SURFACE LEAKAGE     =           0.0000
           AG WELLS      =   368529376.0000             AG WELLS      =           0.0000

               TOTAL OUT =  1611222784.0000                 TOTAL OUT =          15.0225

                IN - OUT =       -2688.0000                  IN - OUT =      -1.0395E-04

     PERCENT DISCREPANCY =          -0.00         PERCENT DISCREPANCY =          -0.00






         TIME SUMMARY AT END OF TIME STEP   30 IN STRESS PERIOD   31
                    SECONDS     MINUTES      HOURS       DAYS        YEARS
                    -----------------------------------------------------------
   TIME STEP LENGTH  87667.      1461.1      24.352      1.0147     2.77799E-03
 STRESS PERIOD TIME 2.63000E+06  43833.      730.56      30.440     8.33397E-02
         TOTAL TIME 7.89864E+07 1.31644E+06  21941.      914.20      2.5029    
1
1
                            STRESS PERIOD NO.   32, LENGTH =   2630000.    
                            -----------------------------------------------

                              NUMBER OF TIME STEPS =    30

                               MULTIPLIER FOR DELT =     1.000

                            INITIAL TIME STEP SIZE =   87666.66    

 REUSING NON-PARAMETER GHB CELLS FROM LAST STRESS PERIOD

      2 GHB CELLS

 REUSING STREAM SEGMENT DATA FROM LAST STRESS PERIOD



            AREAL INFILTRATION RATE
 READING ON UNIT   19 WITH FORMAT: (10F4.0)            

            1           2           3           4           5           6           7           8           9          10
 ........................................................................................................................
   1   1.2000E-09   0.000       0.000       0.000       0.000       0.000       0.000       0.000       0.000       0.000    
   2   2.1000E-09  2.0000E-09  8.0000E-10  8.5000E-09   0.000       0.000       0.000       0.000       0.000       0.000    
   3   5.0000E-10  1.1000E-09  8.8000E-09  5.5000E-09   0.000       0.000       0.000       0.000       0.000       0.000    
   4   8.5000E-09  1.1000E-09  1.1000E-09  1.1000E-09  2.0000E-09   0.000       0.000       0.000       0.000       0.000    
   5   8.5000E-09  1.1000E-09  1.1000E-09  1.1000E-09  1.1000E-09   0.000       0.000       0.000       0.000       0.000    
   6   8.5000E-09  5.2000E-09  2.1000E-09  1.1000E-09  1.5000E-09   0.000       0.000       0.000       0.000       0.000    
   7   8.5000E-09  5.2000E-09  2.1000E-09  1.2000E-09  2.0000E-09   0.000       0.000       0.000       0.000       0.000    
   8   5.0000E-10  5.2000E-09  2.1000E-09  1.2000E-09  5.0000E-09   0.000       0.000       0.000       0.000       0.000    
   9   5.0000E-10  5.2000E-09  2.1000E-09  1.2000E-09  5.0000E-09   0.000       0.000       0.000       0.000       0.000    
  10   5.0000E-10  5.2000E-09  2.1000E-09  1.2000E-09  5.8000E-09   0.000       0.000       0.000       0.000       0.000    
  11   1.0000E-10  1.1000E-09  1.1000E-09  1.2000E-09  5.0000E-09   0.000       0.000       0.000       0.000       0.000    
  12   1.1000E-09  1.1000E-09  1.1000E-09  1.1000E-09  2.0000E-09   0.000       0.000       0.000       0.000       0.000    
  13   1.1000E-09  2.2000E-09  2.2000E-09  2.1000E-09  1.0000E-09   0.000       0.000       0.000       0.000       0.000    
  14   2.0000E-10  5.5000E-09  5.5000E-09  5.2000E-09  1.0000E-09   0.000       0.000       0.000       0.000       0.000    
  15    0.000      8.8000E-09  8.8000E-09   0.000       0.000       0.000       0.000       0.000       0.000       0.000    

                  ET RATE =  4.000000E-07

 USING ET EXTINCTION DEPTH FROM PREVIOUS STRESS PERIOD. CURRENT PERIOD IS:      32

 USING EXTINCTION WATER CONTENT FROM PREVIOUS STRESS PERIOD. CURRENT PERIOD IS:      32

 USING AIR ENTRY PRESSURE FROM PREVIOUS STRESS PERIOD. CURRENT PERIOD IS:      32

 USING ROOT PRESSURE HEAD FROM PREVIOUS STRESS PERIOD. CURRENT PERIOD IS:      32

 USING ROOT ACTIVITY FROM PREVIOUS STRESS PERIOD. CURRENT PERIOD IS:      32

 PROCESSING AG STRESS PERIOD DATA

 READING AG STRESS PERIOD DATA

 READING IRRIGATION SEGMENT

 READING IRRIGATION WELL

 READING SUPPLEMENTAL WELL

 END PROCESSING AG STRESS PERIOD DATA OPTIONS
 
 SOLVING FOR HEAD 
                                                   Max.-Head-Change                         Max.-Flux-Residual
  Residual-Control   Outer-Iter.   Inner-Iter.     Column Row Layer    Maximum-Head-Change  Column Row Layer    Maximum-Flux-Residual          L2-NORM 
          0                 1           2             4   13     1       0.6483637780E-02       4   13    1         0.3736252460E+00      0.8801327310E+00
          0                 2           2             4    7     1      -0.1439257195E+00       4    7    1        -0.7729708341E+01      0.1901384908E+02
          0                 3           2             4    7     1       0.2642976967E-01       4    7    1         0.1459152962E+01      0.3573373897E+01
          0                 4           2             4    7     1      -0.1051676787E-02       4    7    1        -0.5968015007E-01      0.1467871560E+00
          0                 5           1             4    7     1       0.1296761187E-04       4    7    1         0.7563303247E-03      0.1966900732E-02

    ------------------------------------------------
       NWT REQUIRED            5 OUTER ITERATIONS 
       AND A TOTAL OF          9 INNER ITERATIONS.
    ------------------------------------------------

 NO OUTPUT CONTROL FOR STRESS PERIOD   32   TIME STEP    1
 
 SOLVING FOR HEAD 
                                                   Max.-Head-Change                         Max.-Flux-Residual
  Residual-Control   Outer-Iter.   Inner-Iter.     Column Row Layer    Maximum-Head-Change  Column Row Layer    Maximum-Flux-Residual          L2-NORM 
          0                 1           2             4   13     1       0.7341809650E-02       4   13    1         0.4233957626E+00      0.1072409479E+01
          0                 2           2             4    7     1      -0.1028777530E+00       5    6    1        -0.5537391556E+01      0.1361838964E+02
          0                 3           2             4    7     1       0.6092291361E-01       5    6    1         0.3363467032E+01      0.8257495840E+01
          0                 4           2             4    7     1      -0.2437725321E-02       4    7    1        -0.1383737820E+00      0.3539946612E+00
          0                 5           1             4    7     1       0.3005810586E-04       4    7    1         0.1753654546E-02      0.4762449995E-02

    ------------------------------------------------
       NWT REQUIRED            5 OUTER ITERATIONS 
       AND A TOTAL OF          9 INNER ITERATIONS.
    ------------------------------------------------

 NO OUTPUT CONTROL FOR STRESS PERIOD   32   TIME STEP    2
 
 SOLVING FOR HEAD 
                                                   Max.-Head-Change                         Max.-Flux-Residual
  Residual-Control   Outer-Iter.   Inner-Iter.     Column Row Layer    Maximum-Head-Change  Column Row Layer    Maximum-Flux-Residual          L2-NORM 
          0                 1           2             4   13     1       0.8517215572E-02       4   13    1         0.4914257799E+00      0.1208474345E+01
          0                 2           2             4    7     1      -0.2107714742E+00       5    6    1        -0.1133624473E+02      0.2782459496E+02
          0                 3           2             4    7     1       0.1425597954E-01       5    6    1         0.7933850537E+00      0.1945930062E+01
          0                 4           2             4    7     1      -0.5672599317E-03       4    6    1        -0.3243644213E-01      0.7969766503E-01
          0                 5           1             4    7     1       0.6994559197E-05       4    6    1         0.4110695754E-03      0.1036098641E-02

    ------------------------------------------------
       NWT REQUIRED            5 OUTER ITERATIONS 
       AND A TOTAL OF          9 INNER ITERATIONS.
    ------------------------------------------------

 NO OUTPUT CONTROL FOR STRESS PERIOD   32   TIME STEP    3
 
 SOLVING FOR HEAD 
                                                   Max.-Head-Change                         Max.-Flux-Residual
  Residual-Control   Outer-Iter.   Inner-Iter.     Column Row Layer    Maximum-Head-Change  Column Row Layer    Maximum-Flux-Residual          L2-NORM 
          0                 1           2             5    6     1       0.1292254409E-01       5    6    1         0.7022765053E+00      0.1719979903E+01
          0                 2           2             4    7     1      -0.9408937994E-01       5    6    1        -0.5091055946E+01      0.1249393037E+02
          0                 3           2             4    7     1       0.6909044018E-01       5    6    1         0.3814958332E+01      0.9367816068E+01
          0                 4           2             4    7     1      -0.2749202990E-02       5    8    1        -0.1559908780E+00      0.3975900553E+00
          0                 5           2             7   13     1       0.1192580544E-03       7   13    1         0.6832440118E-02      0.8618124203E-02
          0                 6           1             7   13     1      -0.4743201134E-05       7   13    1        -0.2792175533E-03      0.2893812638E-03

    ------------------------------------------------
       NWT REQUIRED            6 OUTER ITERATIONS 
       AND A TOTAL OF         11 INNER ITERATIONS.
    ------------------------------------------------

 NO OUTPUT CONTROL FOR STRESS PERIOD   32   TIME STEP    4
 
 SOLVING FOR HEAD 
                                                   Max.-Head-Change                         Max.-Flux-Residual
  Residual-Control   Outer-Iter.   Inner-Iter.     Column Row Layer    Maximum-Head-Change  Column Row Layer    Maximum-Flux-Residual          L2-NORM 
          0                 1           2             5    6     1       0.1317328837E-01       5    6    1         0.7156880457E+00      0.1795676020E+01
          0                 2           2             4    7     1      -0.2112418051E+00       5    6    1        -0.1137912405E+02      0.2790771966E+02
          0                 3           2             4    7     1       0.1438451988E-01       5    6    1         0.7963991865E+00      0.1954669492E+01
          0                 4           2             4    7     1      -0.5723747700E-03       5    6    1        -0.3256049484E-01      0.8004652762E-01
          0                 5           1             4    7     1       0.7057626910E-05       5    6    1         0.4118038346E-03      0.1039535435E-02

    ------------------------------------------------
       NWT REQUIRED            5 OUTER ITERATIONS 
       AND A TOTAL OF          9 INNER ITERATIONS.
    ------------------------------------------------

 NO OUTPUT CONTROL FOR STRESS PERIOD   32   TIME STEP    5
 
 SOLVING FOR HEAD 
                                                   Max.-Head-Change                         Max.-Flux-Residual
  Residual-Control   Outer-Iter.   Inner-Iter.     Column Row Layer    Maximum-Head-Change  Column Row Layer    Maximum-Flux-Residual          L2-NORM 
          0                 1           2             5    6     1       0.1841961130E-01       5    8    1         0.1004603140E+01      0.2358136464E+01
          0                 2           2             4    7     1      -0.9422164756E-01       5    8    1        -0.5120182897E+01      0.1254534463E+02
          0                 3           2             4    7     1       0.6911967101E-01       5    6    1         0.3818108749E+01      0.9374256725E+01
          0                 4           2             4    7     1      -0.2750366033E-02       5    8    1        -0.1561230434E+00      0.3976511156E+00
          0                 5           2             7   13     1       0.1182044388E-03       7   13    1         0.6772108195E-02      0.8573328840E-02
          0                 6           1             7   13     1      -0.4701639989E-05       7   13    1        -0.2767709911E-03      0.2870439224E-03

    ------------------------------------------------
       NWT REQUIRED            6 OUTER ITERATIONS 
       AND A TOTAL OF         11 INNER ITERATIONS.
    ------------------------------------------------

 NO OUTPUT CONTROL FOR STRESS PERIOD   32   TIME STEP    6
 
 SOLVING FOR HEAD 
                                                   Max.-Head-Change                         Max.-Flux-Residual
  Residual-Control   Outer-Iter.   Inner-Iter.     Column Row Layer    Maximum-Head-Change  Column Row Layer    Maximum-Flux-Residual          L2-NORM 
          0                 1           2             5    6     1       0.1838737651E-01       5    6    1         0.1001300386E+01      0.2398532983E+01
          0                 2           2             4    7     1      -0.2114025101E+00       5    6    1        -0.1140771000E+02      0.2795971129E+02
          0                 3           2             4    7     1       0.1439546683E-01       5    6    1         0.7984113658E+00      0.1958256864E+01
          0                 4           2             4    7     1      -0.5728103421E-03       5    6    1        -0.3264387570E-01      0.8018720965E-01
          0                 5           1             4    7     1       0.7062997797E-05       5    6    1         0.4129340768E-03      0.1040035004E-02

    ------------------------------------------------
       NWT REQUIRED            5 OUTER ITERATIONS 
       AND A TOTAL OF          9 INNER ITERATIONS.
    ------------------------------------------------

 NO OUTPUT CONTROL FOR STRESS PERIOD   32   TIME STEP    7
 
 SOLVING FOR HEAD 
                                                   Max.-Head-Change                         Max.-Flux-Residual
  Residual-Control   Outer-Iter.   Inner-Iter.     Column Row Layer    Maximum-Head-Change  Column Row Layer    Maximum-Flux-Residual          L2-NORM 
          0                 1           2             5    8     1       0.2342961103E-01       5    8    1         0.1280579456E+01      0.2961032456E+01
          0                 2           2             4    7     1      -0.9438781650E-01       5    8    1        -0.5147778318E+01      0.1259580133E+02
          0                 3           2             4    7     1       0.6913122953E-01       5    8    1         0.3820042082E+01      0.9377891261E+01
          0                 4           2             4    7     1      -0.2750825878E-02       5    8    1        -0.1562036965E+00      0.3976088506E+00
          0                 5           2             7   13     1       0.1171954553E-03       7   13    1         0.6714334332E-02      0.8530399974E-02
          0                 6           1             7   13     1      -0.4660823503E-05       7   13    1        -0.2743691489E-03      0.2847195764E-03

    ------------------------------------------------
       NWT REQUIRED            6 OUTER ITERATIONS 
       AND A TOTAL OF         11 INNER ITERATIONS.
    ------------------------------------------------

 NO OUTPUT CONTROL FOR STRESS PERIOD   32   TIME STEP    8
 
 SOLVING FOR HEAD 
                                                   Max.-Head-Change                         Max.-Flux-Residual
  Residual-Control   Outer-Iter.   Inner-Iter.     Column Row Layer    Maximum-Head-Change  Column Row Layer    Maximum-Flux-Residual          L2-NORM 
          0                 1           2             5    8     1       0.2311788415E-01       5    8    1         0.1262647767E+01      0.2969899023E+01
          0                 2           2             4    7     1      -0.2115747848E+00       5    8    1        -0.1143384643E+02      0.2800813799E+02
          0                 3           2             4    7     1       0.1440720105E-01       5    6    1         0.8002224542E+00      0.1961601068E+01
          0                 4           2             4    7     1      -0.5732772425E-03       5    6    1        -0.3271889753E-01      0.8031853657E-01
          0                 5           1             4    7     1       0.7068754800E-05       5    6    1         0.4139492235E-03      0.1040338660E-02

    ------------------------------------------------
       NWT REQUIRED            5 OUTER ITERATIONS 
       AND A TOTAL OF          9 INNER ITERATIONS.
    ------------------------------------------------

 NO OUTPUT CONTROL FOR STRESS PERIOD   32   TIME STEP    9
 
 SOLVING FOR HEAD 
                                                   Max.-Head-Change                         Max.-Flux-Residual
  Residual-Control   Outer-Iter.   Inner-Iter.     Column Row Layer    Maximum-Head-Change  Column Row Layer    Maximum-Flux-Residual          L2-NORM 
          0                 1           2             5    8     1       0.2795538119E-01       5    8    1         0.1528385880E+01      0.3519579959E+01
          0                 2           2             4    7     1      -0.9456471984E-01       5    8    1        -0.5172559661E+01      0.1264292166E+02
          0                 3           2             4    7     1       0.6914348494E-01       5    8    1         0.3821786049E+01      0.9381267968E+01
          0                 4           2             4    7     1      -0.2751313466E-02       5    8    1        -0.1562759787E+00      0.3975645374E+00
          0                 5           2             7   13     1       0.1162380098E-03       7   13    1         0.6659510638E-02      0.8489142987E-02
          0                 6           1             7   13     1      -0.4626243595E-05       7   13    1        -0.2723354510E-03      0.2828316050E-03

    ------------------------------------------------
       NWT REQUIRED            6 OUTER ITERATIONS 
       AND A TOTAL OF         11 INNER ITERATIONS.
    ------------------------------------------------

 NO OUTPUT CONTROL FOR STRESS PERIOD   32   TIME STEP   10
 
 SOLVING FOR HEAD 
                                                   Max.-Head-Change                         Max.-Flux-Residual
  Residual-Control   Outer-Iter.   Inner-Iter.     Column Row Layer    Maximum-Head-Change  Column Row Layer    Maximum-Flux-Residual          L2-NORM 
          0                 1           2             5    8     1       0.2741662947E-01       5    8    1         0.1497825128E+01      0.3501032373E+01
          0                 2           2             4    7     1      -0.2117565342E+00       5    8    1        -0.1145736481E+02      0.2805337735E+02
          0                 3           2             4    7     1       0.1441957993E-01       5    6    1         0.8018585984E+00      0.1964728138E+01
          0                 4           2             4    7     1      -0.5737697971E-03       5    6    1        -0.3278664762E-01      0.8044247440E-01
          0                 5           1             4    7     1       0.7074828468E-05       5    6    1         0.4148643188E-03      0.1041089323E-02

    ------------------------------------------------
       NWT REQUIRED            5 OUTER ITERATIONS 
       AND A TOTAL OF          9 INNER ITERATIONS.
    ------------------------------------------------

 NO OUTPUT CONTROL FOR STRESS PERIOD   32   TIME STEP   11
 
 SOLVING FOR HEAD 
                                                   Max.-Head-Change                         Max.-Flux-Residual
  Residual-Control   Outer-Iter.   Inner-Iter.     Column Row Layer    Maximum-Head-Change  Column Row Layer    Maximum-Flux-Residual          L2-NORM 
          0                 1           2             5    8     1       0.3204016742E-01       5    8    1         0.1751662132E+01      0.4034611697E+01
          0                 2           2             4    7     1      -0.9474989402E-01       5    8    1        -0.5194888006E+01      0.1268698621E+02
          0                 3           2             4    7     1       0.6915631820E-01       5    8    1         0.3823357113E+01      0.9384412643E+01
          0                 4           2             4    7     1      -0.2751824060E-02       5    8    1        -0.1563410687E+00      0.3975268513E+00
          0                 5           2             7   13     1       0.1153144554E-03       7   13    1         0.6606669187E-02      0.8451774338E-02
          0                 6           1             7   13     1      -0.4586043283E-05       7   13    1        -0.2699737352E-03      0.2805010940E-03

    ------------------------------------------------
       NWT REQUIRED            6 OUTER ITERATIONS 
       AND A TOTAL OF         11 INNER ITERATIONS.
    ------------------------------------------------

 NO OUTPUT CONTROL FOR STRESS PERIOD   32   TIME STEP   12
 
 SOLVING FOR HEAD 
                                                   Max.-Head-Change                         Max.-Flux-Residual
  Residual-Control   Outer-Iter.   Inner-Iter.     Column Row Layer    Maximum-Head-Change  Column Row Layer    Maximum-Flux-Residual          L2-NORM 
          0                 1           2             5    8     1       0.3130307110E-01       5    8    1         0.1710083210E+01      0.3992279925E+01
          0                 2           2             4    7     1      -0.2119455019E+00       5    8    1        -0.1147859128E+02      0.2809571463E+02
          0                 3           2             4    7     1       0.1443247734E-01       5    8    1         0.8076719030E+00      0.1969458821E+01
          0                 4           2             4    7     1      -0.5742828959E-03       5    8    1        -0.3302580730E-01      0.8063286465E-01
          0                 5           1             4    7     1       0.7081155290E-05       5    8    1         0.4179898792E-03      0.1042577684E-02

    ------------------------------------------------
       NWT REQUIRED            5 OUTER ITERATIONS 
       AND A TOTAL OF          9 INNER ITERATIONS.
    ------------------------------------------------

 NO OUTPUT CONTROL FOR STRESS PERIOD   32   TIME STEP   13
 
 SOLVING FOR HEAD 
                                                   Max.-Head-Change                         Max.-Flux-Residual
  Residual-Control   Outer-Iter.   Inner-Iter.     Column Row Layer    Maximum-Head-Change  Column Row Layer    Maximum-Flux-Residual          L2-NORM 
          0                 1           2             5    8     1       0.3575031536E-01       5    8    1         0.1956816865E+01      0.4511435364E+01
          0                 2           2             5    7     1      -0.9495125898E-01       5    8    1        -0.5215399390E+01      0.1272839777E+02
          0                 3           2             4    7     1       0.6916955441E-01       5    8    1         0.3824815430E+01      0.9387373737E+01
          0                 4           2             4    7     1      -0.2752348656E-02       5    6    1        -0.1563900529E+00      0.3974735588E+00
          0                 5           2             7   13     1       0.1144330996E-03       7   13    1         0.6556200343E-02      0.8414573269E-02
          0                 6           1             7   13     1      -0.4550607270E-05       7   13    1        -0.2678862852E-03      0.2787047081E-03

    ------------------------------------------------
       NWT REQUIRED            6 OUTER ITERATIONS 
       AND A TOTAL OF         11 INNER ITERATIONS.
    ------------------------------------------------

 NO OUTPUT CONTROL FOR STRESS PERIOD   32   TIME STEP   14
 
 SOLVING FOR HEAD 
                                                   Max.-Head-Change                         Max.-Flux-Residual
  Residual-Control   Outer-Iter.   Inner-Iter.     Column Row Layer    Maximum-Head-Change  Column Row Layer    Maximum-Flux-Residual          L2-NORM 
          0                 1           2             5    8     1       0.3481831711E-01       5    8    1         0.1904321549E+01      0.4447605963E+01
          0                 2           2             4    7     1      -0.2121397619E+00       5    8    1        -0.1149759033E+02      0.2813531705E+02
          0                 3           2             4    7     1       0.1444578029E-01       5    8    1         0.8167218761E+00      0.1975441350E+01
          0                 4           2             4    7     1      -0.5748122202E-03       5    8    1        -0.3340018323E-01      0.8087542014E-01
          0                 5           1             4    7     1       0.7087681834E-05       5    8    1         0.4230272307E-03      0.1045001520E-02

    ------------------------------------------------
       NWT REQUIRED            5 OUTER ITERATIONS 
       AND A TOTAL OF          9 INNER ITERATIONS.
    ------------------------------------------------

 NO OUTPUT CONTROL FOR STRESS PERIOD   32   TIME STEP   15
 
 SOLVING FOR HEAD 
                                                   Max.-Head-Change                         Max.-Flux-Residual
  Residual-Control   Outer-Iter.   Inner-Iter.     Column Row Layer    Maximum-Head-Change  Column Row Layer    Maximum-Flux-Residual          L2-NORM 
          0                 1           2             5    8     1       0.3922719665E-01       5    8    1         0.2146688264E+01      0.4953999926E+01
          0                 2           2             5    7     1      -0.9522391324E-01       5    8    1        -0.5234386281E+01      0.1276741712E+02
          0                 3           2             4    7     1       0.6918312474E-01       5    8    1         0.3826148794E+01      0.9390144750E+01
          0                 4           2             4    7     1      -0.2752888601E-02       5    8    1        -0.1564443057E+00      0.3974279097E+00
          0                 5           2             7   13     1       0.1135899640E-03       7   13    1         0.6507922129E-02      0.8378492575E-02
          0                 6           1             7   13     1      -0.4517069056E-05       7   13    1        -0.2659141651E-03      0.2768202807E-03

    ------------------------------------------------
       NWT REQUIRED            6 OUTER ITERATIONS 
       AND A TOTAL OF         11 INNER ITERATIONS.
    ------------------------------------------------

 NO OUTPUT CONTROL FOR STRESS PERIOD   32   TIME STEP   16
 
 SOLVING FOR HEAD 
                                                   Max.-Head-Change                         Max.-Flux-Residual
  Residual-Control   Outer-Iter.   Inner-Iter.     Column Row Layer    Maximum-Head-Change  Column Row Layer    Maximum-Flux-Residual          L2-NORM 
          0                 1           2             5    8     1       0.3812980872E-01       5    8    1         0.2085003228E+01      0.4871601536E+01
          0                 2           2             4    7     1      -0.2123375530E+00       5    8    1        -0.1151607920E+02      0.2817303190E+02
          0                 3           2             4    7     1       0.1445916885E-01       5    8    1         0.8060223429E+00      0.1973082018E+01
          0                 4           2             4    7     1      -0.5753449619E-03       5    8    1        -0.3295756121E-01      0.8077523219E-01
          0                 5           1             4    7     1       0.7094251168E-05       5    6    1         0.4171243409E-03      0.1043206201E-02

    ------------------------------------------------
       NWT REQUIRED            5 OUTER ITERATIONS 
       AND A TOTAL OF          9 INNER ITERATIONS.
    ------------------------------------------------

 NO OUTPUT CONTROL FOR STRESS PERIOD   32   TIME STEP   17
 
 SOLVING FOR HEAD 
                                                   Max.-Head-Change                         Max.-Flux-Residual
  Residual-Control   Outer-Iter.   Inner-Iter.     Column Row Layer    Maximum-Head-Change  Column Row Layer    Maximum-Flux-Residual          L2-NORM 
          0                 1           2             5    8     1       0.4238378238E-01       5    8    1         0.2318767925E+01      0.5363091067E+01
          0                 2           2             5    7     1      -0.9548490246E-01       5    8    1        -0.5251593997E+01      0.1280406099E+02
          0                 3           2             4    7     1       0.6919689667E-01       5    8    1         0.3827354565E+01      0.9392739106E+01
          0                 4           2             4    7     1      -0.2753436576E-02       5    8    1        -0.1564940455E+00      0.3973813801E+00
          0                 5           2             7   13     1       0.1127834209E-03       7   13    1         0.6461736351E-02      0.8344101541E-02
          0                 6           1             7   13     1      -0.4485718307E-05       7   13    1        -0.2640679777E-03      0.2750737563E-03

    ------------------------------------------------
       NWT REQUIRED            6 OUTER ITERATIONS 
       AND A TOTAL OF         11 INNER ITERATIONS.
    ------------------------------------------------

 NO OUTPUT CONTROL FOR STRESS PERIOD   32   TIME STEP   18
 
 SOLVING FOR HEAD 
                                                   Max.-Head-Change                         Max.-Flux-Residual
  Residual-Control   Outer-Iter.   Inner-Iter.     Column Row Layer    Maximum-Head-Change  Column Row Layer    Maximum-Flux-Residual          L2-NORM 
          0                 1           2             5    8     1       0.4114140965E-01       5    8    1         0.2249038124E+01      0.5264407814E+01
          0                 2           2             4    7     1      -0.2125376207E+00       5    8    1        -0.1153248246E+02      0.2820832689E+02
          0                 3           2             4    7     1       0.1447279365E-01       5    8    1         0.8071761278E+00      0.1975523631E+01
          0                 4           2             4    7     1      -0.5758871004E-03       5    8    1        -0.3300528790E-01      0.8087265661E-01
          0                 5           1             4    7     1       0.7100935990E-05       5    6    1         0.4177465808E-03      0.1043875873E-02

    ------------------------------------------------
       NWT REQUIRED            5 OUTER ITERATIONS 
       AND A TOTAL OF          9 INNER ITERATIONS.
    ------------------------------------------------

 NO OUTPUT CONTROL FOR STRESS PERIOD   32   TIME STEP   19
 
 SOLVING FOR HEAD 
                                                   Max.-Head-Change                         Max.-Flux-Residual
  Residual-Control   Outer-Iter.   Inner-Iter.     Column Row Layer    Maximum-Head-Change  Column Row Layer    Maximum-Flux-Residual          L2-NORM 
          0                 1           2             5    8     1       0.4525946414E-01       5    8    1         0.2475265924E+01      0.5742145620E+01
          0                 2           2             5    7     1      -0.9573447557E-01       5    8    1        -0.5267243548E+01      0.1283852841E+02
          0                 3           2             4    7     1       0.6921077891E-01       5    8    1         0.3828450045E+01      0.9395176009E+01
          0                 4           2             4    7     1      -0.2753988946E-02       5    8    1        -0.1565391978E+00      0.3973363396E+00
          0                 5           2             7   13     1       0.1120063896E-03       7   13    1         0.6417241318E-02      0.8310799625E-02
          0                 6           1             7   13     1      -0.4449578851E-05       7   13    1        -0.2619385477E-03      0.2729773134E-03

    ------------------------------------------------
       NWT REQUIRED            6 OUTER ITERATIONS 
       AND A TOTAL OF         11 INNER ITERATIONS.
    ------------------------------------------------

 NO OUTPUT CONTROL FOR STRESS PERIOD   32   TIME STEP   20
 
 SOLVING FOR HEAD 
                                                   Max.-Head-Change                         Max.-Flux-Residual
  Residual-Control   Outer-Iter.   Inner-Iter.     Column Row Layer    Maximum-Head-Change  Column Row Layer    Maximum-Flux-Residual          L2-NORM 
          0                 1           2             5    8     1       0.4388968186E-01       5    8    1         0.2398476575E+01      0.5629148381E+01
          0                 2           2             4    7     1      -0.2127386298E+00       5    8    1        -0.1154742607E+02      0.2824156059E+02
          0                 3           2             4    7     1       0.1448648227E-01       5    8    1         0.8082270408E+00      0.1977826650E+01
          0                 4           2             4    7     1      -0.5764317797E-03       5    8    1        -0.3304873915E-01      0.8096449938E-01
          0                 5           1             4    7     1       0.7107651839E-05       5    6    1         0.4183155734E-03      0.1044488758E-02

    ------------------------------------------------
       NWT REQUIRED            5 OUTER ITERATIONS 
       AND A TOTAL OF          9 INNER ITERATIONS.
    ------------------------------------------------

 NO OUTPUT CONTROL FOR STRESS PERIOD   32   TIME STEP   21
 
 SOLVING FOR HEAD 
                                                   Max.-Head-Change                         Max.-Flux-Residual
  Residual-Control   Outer-Iter.   Inner-Iter.     Column Row Layer    Maximum-Head-Change  Column Row Layer    Maximum-Flux-Residual          L2-NORM 
          0                 1           2             5    8     1       0.4788807575E-01       5    8    1         0.2618077996E+01      0.6094264360E+01
          0                 2           2             5    7     1      -0.9597296761E-01       5    8    1        -0.5281524511E+01      0.1287100035E+02
          0                 3           2             4    7     1       0.6922469136E-01       5    8    1         0.3829449725E+01      0.9397469630E+01
          0                 4           2             4    7     1      -0.2754542526E-02       5    8    1        -0.1565803884E+00      0.3972910038E+00
          0                 5           2             7   13     1       0.1112633943E-03       7   13    1         0.6374695127E-02      0.8279074365E-02
          0                 6           1             7   13     1      -0.4424702078E-05       7   13    1        -0.2604723777E-03      0.2715921612E-03

    ------------------------------------------------
       NWT REQUIRED            6 OUTER ITERATIONS 
       AND A TOTAL OF         11 INNER ITERATIONS.
    ------------------------------------------------

 NO OUTPUT CONTROL FOR STRESS PERIOD   32   TIME STEP   22
 
 SOLVING FOR HEAD 
                                                   Max.-Head-Change                         Max.-Flux-Residual
  Residual-Control   Outer-Iter.   Inner-Iter.     Column Row Layer    Maximum-Head-Change  Column Row Layer    Maximum-Flux-Residual          L2-NORM 
          0                 1           2             5    8     1       0.4640595858E-01       5    8    1         0.2535072871E+01      0.5968626678E+01
          0                 2           2             4    7     1      -0.2129395021E+00       5    8    1        -0.1156108547E+02      0.2827290566E+02
          0                 3           2             4    7     1       0.1450016135E-01       5    8    1         0.8091874538E+00      0.1979997364E+01
          0                 4           2             4    7     1      -0.5769760801E-03       5    8    1        -0.3308843001E-01      0.8105128642E-01
          0                 5           1             4    7     1       0.7114363544E-05       5    6    1         0.4188373205E-03      0.1045027352E-02

    ------------------------------------------------
       NWT REQUIRED            5 OUTER ITERATIONS 
       AND A TOTAL OF          9 INNER ITERATIONS.
    ------------------------------------------------

 NO OUTPUT CONTROL FOR STRESS PERIOD   32   TIME STEP   23
 
 SOLVING FOR HEAD 
                                                   Max.-Head-Change                         Max.-Flux-Residual
  Residual-Control   Outer-Iter.   Inner-Iter.     Column Row Layer    Maximum-Head-Change  Column Row Layer    Maximum-Flux-Residual          L2-NORM 
          0                 1           2             5    8     1       0.5029864497E-01       5    8    1         0.2748828783E+01      0.6422168781E+01
          0                 2           2             5    7     1      -0.9620078316E-01       5    8    1        -0.5294599350E+01      0.1290163831E+02
          0                 3           2             4    7     1       0.6923856707E-01       5    8    1         0.3830364978E+01      0.9399632220E+01
          0                 4           2             4    7     1      -0.2755094647E-02       5    8    1        -0.1566180882E+00      0.3972461564E+00
          0                 5           2             7   13     1       0.1105501819E-03       7   13    1         0.6333857236E-02      0.8248700422E-02
          0                 6           1             7   13     1      -0.4397022816E-05       7   13    1        -0.2588468337E-03      0.2701174637E-03

    ------------------------------------------------
       NWT REQUIRED            6 OUTER ITERATIONS 
       AND A TOTAL OF         11 INNER ITERATIONS.
    ------------------------------------------------

 NO OUTPUT CONTROL FOR STRESS PERIOD   32   TIME STEP   24
 
 SOLVING FOR HEAD 
                                                   Max.-Head-Change                         Max.-Flux-Residual
  Residual-Control   Outer-Iter.   Inner-Iter.     Column Row Layer    Maximum-Head-Change  Column Row Layer    Maximum-Flux-Residual          L2-NORM 
          0                 1           2             5    8     1       0.4871728550E-01       5    8    1         0.2660339980E+01      0.6285351515E+01
          0                 2           2             4    7     1      -0.2131393643E+00       5    8    1        -0.1157361196E+02      0.2830251453E+02
          0                 3           2             4    7     1       0.1451377142E-01       5    8    1         0.8100680359E+00      0.1982048078E+01
          0                 4           2             4    7     1      -0.5775176363E-03       5    8    1        -0.3312480448E-01      0.8113333976E-01
          0                 5           1             4    7     1       0.7121041085E-05       5    6    1         0.4193170084E-03      0.1045676928E-02

    ------------------------------------------------
       NWT REQUIRED            5 OUTER ITERATIONS 
       AND A TOTAL OF          9 INNER ITERATIONS.
    ------------------------------------------------

 NO OUTPUT CONTROL FOR STRESS PERIOD   32   TIME STEP   25
 
 SOLVING FOR HEAD 
                                                   Max.-Head-Change                         Max.-Flux-Residual
  Residual-Control   Outer-Iter.   Inner-Iter.     Column Row Layer    Maximum-Head-Change  Column Row Layer    Maximum-Flux-Residual          L2-NORM 
          0                 1           2             5    8     1       0.5251654333E-01       5    8    1         0.2868936347E+01      0.6728280813E+01
          0                 2           2             5    7     1      -0.9641836222E-01       5    8    1        -0.5306609874E+01      0.1293058892E+02
          0                 3           2             4    7     1       0.6925234692E-01       5    8    1         0.3831205729E+01      0.9401674365E+01
          0                 4           2             4    7     1      -0.2755642959E-02       5    8    1        -0.1566527079E+00      0.3972019386E+00
          0                 5           2             7   13     1       0.1098646578E-03       7   13    1         0.6294602978E-02      0.8219155304E-02
          0                 6           1             7   13     1      -0.4369172241E-05       7   13    1        -0.2572081953E-03      0.2685177907E-03

    ------------------------------------------------
       NWT REQUIRED            6 OUTER ITERATIONS 
       AND A TOTAL OF         11 INNER ITERATIONS.
    ------------------------------------------------

 NO OUTPUT CONTROL FOR STRESS PERIOD   32   TIME STEP   26
 
 SOLVING FOR HEAD 
                                                   Max.-Head-Change                         Max.-Flux-Residual
  Residual-Control   Outer-Iter.   Inner-Iter.     Column Row Layer    Maximum-Head-Change  Column Row Layer    Maximum-Flux-Residual          L2-NORM 
          0                 1           2             5    8     1       0.5084721083E-01       5    8    1         0.2775593421E+01      0.6581543057E+01
          0                 2           2             4    7     1      -0.2133374492E+00       5    8    1        -0.1158513709E+02      0.2833052480E+02
          0                 3           2             4    7     1       0.1452726029E-01       5    8    1         0.8108780627E+00      0.1983988205E+01
          0                 4           2             4    7     1      -0.5780543704E-03       5    8    1        -0.3315824850E-01      0.8121127393E-01
          0                 5           1             4    7     1       0.7127659257E-05       5    6    1         0.4197591893E-03      0.1046321737E-02

    ------------------------------------------------
       NWT REQUIRED            5 OUTER ITERATIONS 
       AND A TOTAL OF          9 INNER ITERATIONS.
    ------------------------------------------------

 NO OUTPUT CONTROL FOR STRESS PERIOD   32   TIME STEP   27
 
 SOLVING FOR HEAD 
                                                   Max.-Head-Change                         Max.-Flux-Residual
  Residual-Control   Outer-Iter.   Inner-Iter.     Column Row Layer    Maximum-Head-Change  Column Row Layer    Maximum-Flux-Residual          L2-NORM 
          0                 1           2             5    8     1       0.5456335140E-01       5    8    1         0.2979605955E+01      0.7014720593E+01
          0                 2           2             5    7     1      -0.9662614862E-01       5    8    1        -0.5317676611E+01      0.1295798467E+02
          0                 3           2             4    7     1       0.6926598417E-01       5    8    1         0.3831980415E+01      0.9403605818E+01
          0                 4           2             4    7     1      -0.2756185601E-02       5    8    1        -0.1566845969E+00      0.3971586009E+00
          0                 5           2             7   13     1       0.1092045403E-03       7   13    1         0.6256798069E-02      0.8190885308E-02
          0                 6           1             7   13     1      -0.4342594080E-05       7   13    1        -0.2556387976E-03      0.2668386804E-03

    ------------------------------------------------
       NWT REQUIRED            6 OUTER ITERATIONS 
       AND A TOTAL OF         11 INNER ITERATIONS.
    ------------------------------------------------

 NO OUTPUT CONTROL FOR STRESS PERIOD   32   TIME STEP   28
 
 SOLVING FOR HEAD 
                                                   Max.-Head-Change                         Max.-Flux-Residual
  Residual-Control   Outer-Iter.   Inner-Iter.     Column Row Layer    Maximum-Head-Change  Column Row Layer    Maximum-Flux-Residual          L2-NORM 
          0                 1           2             5    8     1       0.5281592481E-01       5    8    1         0.2881960017E+01      0.6859146886E+01
          0                 2           2             4    7     1      -0.2135331175E+00       5    8    1        -0.1159577354E+02      0.2835705876E+02
          0                 3           2             4    7     1       0.1454058446E-01       5    8    1         0.8116254792E+00      0.1985825577E+01
          0                 4           2             4    7     1      -0.5785845516E-03       5    8    1        -0.3318909263E-01      0.8128467457E-01
          0                 5           1             4    7     1       0.7134196331E-05       5    6    1         0.4201678080E-03      0.1046856521E-02

    ------------------------------------------------
       NWT REQUIRED            5 OUTER ITERATIONS 
       AND A TOTAL OF          9 INNER ITERATIONS.
    ------------------------------------------------

 NO OUTPUT CONTROL FOR STRESS PERIOD   32   TIME STEP   29
 
 SOLVING FOR HEAD 
                                                   Max.-Head-Change                         Max.-Flux-Residual
  Residual-Control   Outer-Iter.   Inner-Iter.     Column Row Layer    Maximum-Head-Change  Column Row Layer    Maximum-Flux-Residual          L2-NORM 
          0                 1           2             5    8     1       0.5645812564E-01       5    8    1         0.3081900222E+01      0.7283364018E+01
          0                 2           2             5    7     1      -0.9682463531E-01       5    8    1        -0.5327905821E+01      0.1298394485E+02
          0                 3           2             4    7     1       0.6927943851E-01       5    8    1         0.3832696475E+01      0.9405435449E+01
          0                 4           2             4    7     1      -0.2756720967E-02       5    8    1        -0.1567140630E+00      0.3971161381E+00
          0                 5           2             7   13     1       0.1085760233E-03       7   13    1         0.6220817879E-02      0.8164748508E-02
          0                 6           1             7   13     1      -0.4325731027E-05       7   13    1        -0.2546520209E-03      0.2658936630E-03

    ------------------------------------------------
       NWT REQUIRED            6 OUTER ITERATIONS 
       AND A TOTAL OF         11 INNER ITERATIONS.
    ------------------------------------------------

 NO OUTPUT CONTROL FOR STRESS PERIOD   32   TIME STEP   30



 STREAM LISTING     PERIOD     32   STEP       30

 LAYER ROW COL. STREAM  RCH.  FLOW INTO     FLOW TO   FLOW OUT OF   OVRLND.     DIRECT     STREAM       STREAM     STREAM     STREAM   STREAMBED  STREAMBED
                SEG.NO.  NO.  STRM. RCH.    AQUIFER    STRM. RCH.    RUNOFF     PRECIP       ET          HEAD       DEPTH      WIDTH   CONDCTNC.   GRADIENT

   1    1    1     1     1    5.6248E+01  3.5874E-01   5.5890E+01  0.000E+00  0.000E+00  0.000E+00  1.09453E+03  1.479E+00  1.780E+01  8.009E-02  1.493E+00
   1    2    2     1     2    5.5890E+01  5.5549E-01   5.5334E+01  0.000E+00  0.000E+00  0.000E+00  1.08953E+03  1.473E+00  1.774E+01  1.242E-01  1.491E+00
   1    3    3     1     3    5.5334E+01  4.7367E-01   5.4860E+01  0.000E+00  0.000E+00  0.000E+00  1.08389E+03  1.467E+00  1.767E+01  1.060E-01  1.489E+00
   1    3    4     1     4    5.4860E+01  4.3612E-01   5.4424E+01  0.000E+00  0.000E+00  0.000E+00  1.07887E+03  1.461E+00  1.762E+01  9.777E-02  1.487E+00
   1    4    5     2     1    5.2424E+01  3.8056E-01   5.2044E+01  0.000E+00  0.000E+00  0.000E+00  1.07381E+03  1.879E+00  1.200E+01  7.800E-02  1.626E+00
   1    5    6     2     2    5.2044E+01  2.9230E-01   5.1751E+01  0.000E+00  0.000E+00  0.000E+00  1.06838E+03  1.872E+00  1.200E+01  6.000E-02  1.624E+00
   1    6    6     2     3    5.1751E+01  2.9192E-01   5.1459E+01  0.000E+00  0.000E+00  0.000E+00  1.06366E+03  1.865E+00  1.200E+01  6.000E-02  1.622E+00
   1    7    6     2     4    5.1459E+01  2.9154E-01   5.1168E+01  0.000E+00  0.000E+00  0.000E+00  1.05893E+03  1.859E+00  1.200E+01  6.000E-02  1.620E+00
   1    8    6     2     5    5.1168E+01  2.9116E-01   5.0877E+01  0.000E+00  0.000E+00  0.000E+00  1.05421E+03  1.853E+00  1.200E+01  6.000E-02  1.618E+00
   1    3    5     3     1    2.0000E+00  2.8252E-01   1.7175E+00  0.000E+00  0.000E+00  0.000E+00  1.07555E+03  1.909E+00  9.636E+00  7.227E-02  1.955E+00
   1    3    6     3     2    1.7175E+00  2.4905E-01   1.4684E+00  0.000E+00  0.000E+00  0.000E+00  1.07264E+03  1.727E+00  8.909E+00  6.682E-02  1.864E+00
   1    3    7     3     3    1.4684E+00  1.9718E-01   1.2712E+00  0.000E+00  0.000E+00  0.000E+00  1.06987E+03  1.555E+00  8.218E+00  5.547E-02  1.777E+00
   1    4    8     3     4    1.2712E+00  2.2567E-01   1.0456E+00  0.000E+00  0.000E+00  0.000E+00  1.06682E+03  1.364E+00  7.455E+00  6.709E-02  1.682E+00
   1    5    8     3     5    1.0456E+00  1.5790E-01   8.8768E-01  0.000E+00  0.000E+00  0.000E+00  1.06362E+03  1.164E+00  6.655E+00  4.991E-02  1.582E+00
   1    6    8     3     6    8.8768E-01  5.5980E-02   8.3170E-01  0.000E+00  0.000E+00  0.000E+00  1.06158E+03  1.036E+00  6.145E+00  1.844E-02  1.518E+00
   1    5   10     4     1    1.0000E+01  9.0919E-02   9.9091E+00  0.000E+00  0.000E+00  0.000E+00  1.07836E+03  6.368E-01  1.000E+01  2.500E-02  1.212E+00
   1    5    9     4     2    9.9091E+00  1.8158E-01   9.7275E+00  0.000E+00  0.000E+00  0.000E+00  1.07154E+03  6.315E-01  1.000E+01  5.000E-02  1.211E+00
   1    6    8     4     3    9.7275E+00  1.2689E-01   9.6006E+00  0.000E+00  0.000E+00  0.000E+00  1.06381E+03  6.256E-01  1.000E+01  3.500E-02  1.209E+00
   1    6    8     5     1    1.0432E+01  2.2686E-01   1.0205E+01  0.000E+00  0.000E+00  0.000E+00  1.05868E+03  6.790E-01  1.542E+01  6.166E-02  1.226E+00
   1    7    7     5     2    1.0205E+01  2.7894E-01   9.9265E+00  0.000E+00  0.000E+00  0.000E+00  1.05417E+03  6.732E-01  1.519E+01  7.594E-02  1.224E+00
   1    8    7     5     3    9.9265E+00  1.9221E-01   9.7343E+00  0.000E+00  0.000E+00  0.000E+00  1.04992E+03  6.676E-01  1.497E+01  5.241E-02  1.223E+00
   1    8    6     5     4    9.7343E+00  1.3577E-01   9.5985E+00  0.000E+00  0.000E+00  0.000E+00  1.04691E+03  6.637E-01  1.482E+01  3.706E-02  1.221E+00
   1    9    6     6     1    9.5985E+00  2.2097E-01   9.3776E+00  0.000E+00  0.000E+00  0.000E+00  1.04341E+03  6.828E-01  1.200E+01  6.000E-02  1.228E+00
   1   10    7     6     2    9.3776E+00  2.2039E-01   9.1572E+00  0.000E+00  0.000E+00  0.000E+00  1.03885E+03  6.732E-01  1.200E+01  6.000E-02  1.224E+00
   1   11    7     6     3    9.1572E+00  2.1981E-01   8.9374E+00  0.000E+00  0.000E+00  0.000E+00  1.03430E+03  6.636E-01  1.200E+01  6.000E-02  1.221E+00
   1   12    7     6     4    8.9374E+00  2.1923E-01   8.7181E+00  0.000E+00  0.000E+00  0.000E+00  1.02974E+03  6.539E-01  1.200E+01  6.000E-02  1.218E+00
   1   13    7     6     5    8.7181E+00 -9.8409E-02   8.8165E+00  0.000E+00  0.000E+00  0.000E+00  1.02656E+03  6.512E-01  1.200E+01  2.400E-01 -1.367E-01
   1   14    9     7     1    1.5000E+02  1.3443E+00   1.4866E+02  0.000E+00  0.000E+00  0.000E+00  1.03987E+03  2.288E+00  5.529E+01  5.593E-01  8.012E-01
   1   13    8     7     2    1.4866E+02  1.8603E+00   1.4680E+02  0.000E+00  0.000E+00  0.000E+00  1.03478E+03  2.279E+00  5.526E+01  6.148E-01  1.009E+00
   1   13    7     7     3    1.4680E+02  1.5185E+00   1.4528E+02  0.000E+00  0.000E+00  0.000E+00  1.02969E+03  2.270E+00  5.522E+01  5.584E-01  9.064E-01
   1   13    6     8     1    1.5409E+02  8.7391E-01   1.5322E+02  0.000E+00  0.000E+00  0.000E+00  1.02472E+03  2.842E+00  4.121E+01  4.200E-01  6.936E-01
   1   13    5     8     2    1.5322E+02  1.4667E-01   1.5307E+02  0.000E+00  0.000E+00  0.000E+00  1.01846E+03  2.839E+00  4.116E+01  4.195E-01  1.165E-01
   1   13    4     8     3    1.5307E+02 -2.5160E+00   1.5559E+02  0.000E+00  0.000E+00  0.000E+00  1.01222E+03  2.847E+00  4.128E+01  4.207E+00 -1.994E-01
   1   13    3     8     4    1.5559E+02 -3.7130E+00   1.5930E+02  0.000E+00  0.000E+00  0.000E+00  1.00599E+03  2.868E+00  4.159E+01  4.238E+00 -2.920E-01
   1   13    2     8     5    1.5930E+02 -2.6695E+00   1.6197E+02  0.000E+00  0.000E+00  0.000E+00  9.99765E+02  2.890E+00  4.191E+01  4.270E+00 -2.084E-01
   1   13    1     8     6    1.6197E+02 -2.0907E+00   1.6406E+02  0.000E+00  0.000E+00  0.000E+00  9.94781E+02  2.906E+00  4.214E+01  2.576E+00 -2.705E-01
   1    8    6     9     1    5.0877E+01  0.0000E+00   5.0877E+01  0.000E+00  0.000E+00  0.000E+00  1.08476E+03  6.014E+00  4.000E+00  0.000E+00  3.005E+00
   1    8    5     9     2    5.0877E+01  0.0000E+00   5.0877E+01  0.000E+00  0.000E+00  0.000E+00  1.08426E+03  6.014E+00  4.000E+00  0.000E+00  3.005E+00





UNSATURATED ZONE PACKAGE VOLUMETRIC BUDGET FOR  TIME STEP    30 STRESS PERIOD   32
  ------------------------------------------------------------------------------



     CUMULATIVE VOLUMES      L**3       RATES FOR THIS TIME STEP      L**3/T
     ------------------                 ------------------------

           IN:                                      IN:
           ---                                      ---
        INFILTRATION =  1637091477.0854          INFILTRATION =          64.6451

          OUT:                                     OUT:
          ----                                     ----
              UZF ET =  1298950434.5073                UZF ET =          64.1075
        UZF RECHARGE =     7213923.5161          UZF RECHARGE =       0.0000E+00

            IN - OUT =   330927119.0621              IN - OUT =           0.5376

          STORAGE:                                 STORAGE:
          --------                                 --------
      STORAGE CHANGE =   330927903.2733        STORAGE CHANGE =           0.5376

 PERCENT DISCREPANCY IS DIFFERENCE BETWEEN IN-OUT MINUS CHANGE IN STORAGE
 DIVIDED BY THE AVERAGE OF IN AND OUT TIMES 100

 PERCENT DISCREPANCY =          -0.00     PERCENT DISCREPANCY =           0.00






1
  VOLUMETRIC BUDGET FOR AGRICULTURAL FIELDS AT  END OF TIME STEP   30, STRESS PERIOD  32
  ------------------------------------------------------------------------------

     CUMULATIVE VOLUMES      L**3       RATES FOR THIS TIME STEP      L**3/T
     ------------------                 ------------------------

           IN:                                      IN:
           ---                                      ---
               AG WELLS  =   468184448.0000                 AG WELLS  =           9.3598
      DIVERSION SEGMENTS =   809798848.0000        DIVERSION SEGMENTS =          50.8768
           GW IRRIGATION =           0.0000             GW IRRIGATION =           0.0000
           SW IRRIGATION =           0.0000             SW IRRIGATION =           0.0000
        SYSTEM LOSSES GW =           0.0000          SYSTEM LOSSES GW =           0.0000
        SYSTEM LOSSES SW =           0.0000          SYSTEM LOSSES SW =           0.0000

                TOTAL IN =  1277983232.0000                  TOTAL IN =          60.2366

          OUT:                                     OUT:
          ----                                     ----
               AG WELLS  =           0.0000                 AG WELLS  =           0.0000
      DIVERSION SEGMENTS =           0.0000        DIVERSION SEGMENTS =           0.0000
           GW IRRIGATION =   468184448.0000             GW IRRIGATION =           9.3598
           SW IRRIGATION =   809814144.0000             SW IRRIGATION =          50.8778
        SYSTEM LOSSES GW =           0.0000          SYSTEM LOSSES GW =           0.0000
        SYSTEM LOSSES SW =           0.0000          SYSTEM LOSSES SW =           0.0000

               TOTAL OUT =  1277998592.0000                 TOTAL OUT =          60.2376

                IN - OUT =      -15360.0000                  IN - OUT =      -1.0147E-03

     PERCENT DISCREPANCY =          -0.00         PERCENT DISCREPANCY =          -0.00



1
  VOLUMETRIC BUDGET FOR ENTIRE MODEL AT END OF TIME STEP   30, STRESS PERIOD  32
  ------------------------------------------------------------------------------

     CUMULATIVE VOLUMES      L**3       RATES FOR THIS TIME STEP      L**3/T
     ------------------                 ------------------------

           IN:                                      IN:
           ---                                      ---
             STORAGE     =   735575104.0000               STORAGE     =          13.8115
       CONSTANT HEAD     =           0.0000         CONSTANT HEAD     =           0.0000
     HEAD DEP BOUNDS     =    23332148.0000       HEAD DEP BOUNDS     =           0.2863
      STREAM LEAKAGE     =   980909184.0000        STREAM LEAKAGE     =          12.3970
        UZF RECHARGE     =     7213924.0000          UZF RECHARGE     =           0.0000
               GW ET     =           0.0000                 GW ET     =           0.0000
     SURFACE LEAKAGE     =           0.0000       SURFACE LEAKAGE     =           0.0000
           AG WELLS      =           0.0000             AG WELLS      =           0.0000

                TOTAL IN =  1747030400.0000                  TOTAL IN =          26.4949

          OUT:                                     OUT:
          ----                                     ----
             STORAGE     =   376317856.0000               STORAGE     =           5.7590
       CONSTANT HEAD     =           0.0000         CONSTANT HEAD     =           0.0000
     HEAD DEP BOUNDS     =    23741964.0000       HEAD DEP BOUNDS     =           0.2885
      STREAM LEAKAGE     =   876185280.0000        STREAM LEAKAGE     =          11.0875
        UZF RECHARGE     =           0.0000          UZF RECHARGE     =           0.0000
               GW ET     =     2603293.0000                 GW ET     =           0.0000
     SURFACE LEAKAGE     =           0.0000       SURFACE LEAKAGE     =           0.0000
           AG WELLS      =   468184448.0000             AG WELLS      =           9.3598

               TOTAL OUT =  1747032832.0000                 TOTAL OUT =          26.4949

                IN - OUT =       -2432.0000                  IN - OUT =       1.1444E-05

     PERCENT DISCREPANCY =          -0.00         PERCENT DISCREPANCY =           0.00






         TIME SUMMARY AT END OF TIME STEP   30 IN STRESS PERIOD   32
                    SECONDS     MINUTES      HOURS       DAYS        YEARS
                    -----------------------------------------------------------
   TIME STEP LENGTH  87667.      1461.1      24.352      1.0147     2.77799E-03
 STRESS PERIOD TIME 2.63000E+06  43833.      730.56      30.440     8.33397E-02
         TOTAL TIME 8.16164E+07 1.36027E+06  22671.      944.63      2.5863    
1
1
                            STRESS PERIOD NO.   33, LENGTH =   2630000.    
                            -----------------------------------------------

                              NUMBER OF TIME STEPS =    30

                               MULTIPLIER FOR DELT =     1.000

                            INITIAL TIME STEP SIZE =   87666.66    

 REUSING NON-PARAMETER GHB CELLS FROM LAST STRESS PERIOD

      2 GHB CELLS

 REUSING STREAM SEGMENT DATA FROM LAST STRESS PERIOD



            AREAL INFILTRATION RATE
 READING ON UNIT   19 WITH FORMAT: (10F4.0)            

            1           2           3           4           5           6           7           8           9          10
 ........................................................................................................................
   1   1.2000E-09   0.000       0.000       0.000       0.000       0.000       0.000       0.000       0.000       0.000    
   2   2.1000E-09  2.0000E-09  8.0000E-10  8.5000E-09   0.000       0.000       0.000       0.000       0.000       0.000    
   3   5.0000E-10  1.1000E-09  8.8000E-09  5.5000E-09   0.000       0.000       0.000       0.000       0.000       0.000    
   4   8.5000E-09  1.1000E-09  1.1000E-09  1.1000E-09  2.0000E-09   0.000       0.000       0.000       0.000       0.000    
   5   8.5000E-09  1.1000E-09  1.1000E-09  1.1000E-09  1.1000E-09   0.000       0.000       0.000       0.000       0.000    
   6   8.5000E-09  5.2000E-09  2.1000E-09  1.1000E-09  1.5000E-09   0.000       0.000       0.000       0.000       0.000    
   7   8.5000E-09  5.2000E-09  2.1000E-09  1.2000E-09  2.0000E-09   0.000       0.000       0.000       0.000       0.000    
   8   5.0000E-10  5.2000E-09  2.1000E-09  1.2000E-09  5.0000E-09   0.000       0.000       0.000       0.000       0.000    
   9   5.0000E-10  5.2000E-09  2.1000E-09  1.2000E-09  5.0000E-09   0.000       0.000       0.000       0.000       0.000    
  10   5.0000E-10  5.2000E-09  2.1000E-09  1.2000E-09  5.8000E-09   0.000       0.000       0.000       0.000       0.000    
  11   1.0000E-10  1.1000E-09  1.1000E-09  1.2000E-09  5.0000E-09   0.000       0.000       0.000       0.000       0.000    
  12   1.1000E-09  1.1000E-09  1.1000E-09  1.1000E-09  2.0000E-09   0.000       0.000       0.000       0.000       0.000    
  13   1.1000E-09  2.2000E-09  2.2000E-09  2.1000E-09  1.0000E-09   0.000       0.000       0.000       0.000       0.000    
  14   2.0000E-10  5.5000E-09  5.5000E-09  5.2000E-09  1.0000E-09   0.000       0.000       0.000       0.000       0.000    
  15    0.000      8.8000E-09  8.8000E-09   0.000       0.000       0.000       0.000       0.000       0.000       0.000    

                  ET RATE =  3.250000E-07

 USING ET EXTINCTION DEPTH FROM PREVIOUS STRESS PERIOD. CURRENT PERIOD IS:      33

 USING EXTINCTION WATER CONTENT FROM PREVIOUS STRESS PERIOD. CURRENT PERIOD IS:      33

 USING AIR ENTRY PRESSURE FROM PREVIOUS STRESS PERIOD. CURRENT PERIOD IS:      33

 USING ROOT PRESSURE HEAD FROM PREVIOUS STRESS PERIOD. CURRENT PERIOD IS:      33

 USING ROOT ACTIVITY FROM PREVIOUS STRESS PERIOD. CURRENT PERIOD IS:      33

 PROCESSING AG STRESS PERIOD DATA

 READING AG STRESS PERIOD DATA

 READING IRRIGATION SEGMENT

 READING IRRIGATION WELL

 READING SUPPLEMENTAL WELL

 END PROCESSING AG STRESS PERIOD DATA OPTIONS
 
 SOLVING FOR HEAD 
                                                   Max.-Head-Change                         Max.-Flux-Residual
  Residual-Control   Outer-Iter.   Inner-Iter.     Column Row Layer    Maximum-Head-Change  Column Row Layer    Maximum-Flux-Residual          L2-NORM 
          0                 1           2             5    8     1       0.5464099495E-01       5    8    1         0.2980427848E+01      0.7115069595E+01
          0                 2           2             4    7     1      -0.1524464331E+00       5    8    1        -0.8316562382E+01      0.2034932596E+02
          0                 3           2             4    7     1       0.1731301307E-01       5    8    1         0.9646032986E+00      0.2355293636E+01
          0                 4           2             4    7     1      -0.6889025670E-03       5    8    1        -0.3944550765E-01      0.9640602179E-01
          0                 5           1             4    7     1       0.8494464844E-05       5    8    1         0.4994273709E-03      0.1237201532E-02

    ------------------------------------------------
       NWT REQUIRED            5 OUTER ITERATIONS 
       AND A TOTAL OF          9 INNER ITERATIONS.
    ------------------------------------------------

 NO OUTPUT CONTROL FOR STRESS PERIOD   33   TIME STEP    1
 
 SOLVING FOR HEAD 
                                                   Max.-Head-Change                         Max.-Flux-Residual
  Residual-Control   Outer-Iter.   Inner-Iter.     Column Row Layer    Maximum-Head-Change  Column Row Layer    Maximum-Flux-Residual          L2-NORM 
          0                 1           2             5    8     1       0.5622914994E-01       5    8    1         0.3067219604E+01      0.7230958252E+01
          0                 2           2             5    6     1      -0.3654872917E-01       5    8    1        -0.2017487293E+01      0.4852010478E+01
          0                 3           2             4    7     1       0.3197853350E-01       5    8    1         0.1773982217E+01      0.4351991677E+01
          0                 4           2             4    7     1      -0.1276345977E-02       5    8    1        -0.7275953601E-01      0.1779731372E+00
          0                 5           2             4   13     1      -0.1767052152E-03       4   13    1        -0.1100460843E-01      0.1905306014E-01
          0                 6           2             4   13     1      -0.1756625492E-03       4   13    1        -0.1093858086E-01      0.2531922808E-01
          0                 7           2             4    7     1       0.2620191442E-03       5    8    1         0.1527217509E-01      0.4119715490E-01
          0                 8           2             4    7     1       0.9972292053E-03       5    8    1         0.5812428539E-01      0.1430267584E+00
          0                 9           1             4    7     1       0.1463685805E-04       5    8    1         0.8538474340E-03      0.2096404379E-02

    ------------------------------------------------
       NWT REQUIRED            9 OUTER ITERATIONS 
       AND A TOTAL OF         17 INNER ITERATIONS.
    ------------------------------------------------

 NO OUTPUT CONTROL FOR STRESS PERIOD   33   TIME STEP    2
 
 SOLVING FOR HEAD 
                                                   Max.-Head-Change                         Max.-Flux-Residual
  Residual-Control   Outer-Iter.   Inner-Iter.     Column Row Layer    Maximum-Head-Change  Column Row Layer    Maximum-Flux-Residual          L2-NORM 
          0                 1           2             5    8     1       0.5361816973E-01       5    8    1         0.2922015419E+01      0.6962814229E+01
          0                 2           2             4    7     1      -0.1164616532E+00       5    8    1        -0.6372073437E+01      0.1557292962E+02
          0                 3           2             4    7     1       0.2047540774E-01       5    8    1         0.1138183776E+01      0.2781607709E+01
          0                 4           2             4    7     1      -0.8147378903E-03       5    8    1        -0.4654293113E-01      0.1139030429E+00
          0                 5           1             4    7     1       0.1004606780E-04       5    6    1         0.5892644722E-03      0.1469859149E-02

    ------------------------------------------------
       NWT REQUIRED            5 OUTER ITERATIONS 
       AND A TOTAL OF          9 INNER ITERATIONS.
    ------------------------------------------------

 NO OUTPUT CONTROL FOR STRESS PERIOD   33   TIME STEP    3
 
 SOLVING FOR HEAD 
                                                   Max.-Head-Change                         Max.-Flux-Residual
  Residual-Control   Outer-Iter.   Inner-Iter.     Column Row Layer    Maximum-Head-Change  Column Row Layer    Maximum-Flux-Residual          L2-NORM 
          0                 1           2             5    8     1       0.5408769491E-01       5    8    1         0.2947006082E+01      0.7041568233E+01
          0                 2           2             5    6     1      -0.4560007141E-01       5    8    1        -0.2513563092E+01      0.6087700313E+01
          0                 3           2             4    7     1       0.4325354361E-01       5    8    1         0.2394814218E+01      0.5877936850E+01
          0                 4           2             4    7     1      -0.1721109498E-02       5    8    1        -0.9792263281E-01      0.2417738489E+00
          0                 5           1             4    7     1       0.2122200920E-04       5    6    1         0.1239394510E-02      0.3285616672E-02

    ------------------------------------------------
       NWT REQUIRED            5 OUTER ITERATIONS 
       AND A TOTAL OF          9 INNER ITERATIONS.
    ------------------------------------------------

 NO OUTPUT CONTROL FOR STRESS PERIOD   33   TIME STEP    4
 
 SOLVING FOR HEAD 
                                                   Max.-Head-Change                         Max.-Flux-Residual
  Residual-Control   Outer-Iter.   Inner-Iter.     Column Row Layer    Maximum-Head-Change  Column Row Layer    Maximum-Flux-Residual          L2-NORM 
          0                 1           2             5    8     1       0.5163506563E-01       5    8    1         0.2810728423E+01      0.6791242418E+01
          0                 2           2             4    7     1      -0.1214403489E+00       5    8    1        -0.6622788605E+01      0.1620708255E+02
          0                 3           2             4    7     1       0.1606862730E-01       5    8    1         0.8938845847E+00      0.2184399194E+01
          0                 4           2             4    7     1      -0.6393870884E-03       5    8    1        -0.3655370790E-01      0.8947541386E-01
          0                 5           1             4    7     1       0.7883917900E-05       5    6    1         0.4628811184E-03      0.1159457290E-02

    ------------------------------------------------
       NWT REQUIRED            5 OUTER ITERATIONS 
       AND A TOTAL OF          9 INNER ITERATIONS.
    ------------------------------------------------

 NO OUTPUT CONTROL FOR STRESS PERIOD   33   TIME STEP    5
 
 SOLVING FOR HEAD 
                                                   Max.-Head-Change                         Max.-Flux-Residual
  Residual-Control   Outer-Iter.   Inner-Iter.     Column Row Layer    Maximum-Head-Change  Column Row Layer    Maximum-Flux-Residual          L2-NORM 
          0                 1           2             5    8     1       0.5253369242E-01       5    8    1         0.2859566294E+01      0.6911497492E+01
          0                 2           2             5    6     1      -0.4406602283E-01       5    8    1        -0.2428103316E+01      0.5891910895E+01
          0                 3           2             4    7     1       0.4177257251E-01       5    8    1         0.2312116124E+01      0.5675728661E+01
          0                 4           2             4    7     1      -0.1662179584E-02       5    8    1        -0.9454099386E-01      0.2334560634E+00
          0                 5           1             4    7     1       0.2049537882E-04       5    6    1         0.1196611818E-02      0.3172760637E-02

    ------------------------------------------------
       NWT REQUIRED            5 OUTER ITERATIONS 
       AND A TOTAL OF          9 INNER ITERATIONS.
    ------------------------------------------------

 NO OUTPUT CONTROL FOR STRESS PERIOD   33   TIME STEP    6
 
 SOLVING FOR HEAD 
                                                   Max.-Head-Change                         Max.-Flux-Residual
  Residual-Control   Outer-Iter.   Inner-Iter.     Column Row Layer    Maximum-Head-Change  Column Row Layer    Maximum-Flux-Residual          L2-NORM 
          0                 1           2             5    6     1       0.5026785442E-01       5    8    1         0.2729966360E+01      0.6671957579E+01
          0                 2           2             4    7     1      -0.1201124462E+00       5    8    1        -0.6538448146E+01      0.1601307732E+02
          0                 3           2             4    7     1       0.1736048832E-01       5    8    1         0.9642425811E+00      0.2357532440E+01
          0                 4           2             4    7     1      -0.6907917016E-03       5    6    1        -0.3943062166E-01      0.9654626670E-01
          0                 5           1             4    7     1       0.8517758553E-05       5    6    1         0.4992763793E-03      0.1247624515E-02

    ------------------------------------------------
       NWT REQUIRED            5 OUTER ITERATIONS 
       AND A TOTAL OF          9 INNER ITERATIONS.
    ------------------------------------------------

 NO OUTPUT CONTROL FOR STRESS PERIOD   33   TIME STEP    7
 
 SOLVING FOR HEAD 
                                                   Max.-Head-Change                         Max.-Flux-Residual
  Residual-Control   Outer-Iter.   Inner-Iter.     Column Row Layer    Maximum-Head-Change  Column Row Layer    Maximum-Flux-Residual          L2-NORM 
          0                 1           2             5    6     1       0.5115635534E-01       5    8    1         0.2780423362E+01      0.6791130463E+01
          0                 2           2             5    6     1      -0.4433974404E-01       5    8    1        -0.2442229522E+01      0.5938975918E+01
          0                 3           2             4    7     1       0.4220595353E-01       5    8    1         0.2335145323E+01      0.5733244614E+01
          0                 4           2             4    7     1      -0.1679424460E-02       5    6    1        -0.9548370275E-01      0.2358215578E+00
          0                 5           1             4    7     1       0.2070801513E-04       5    6    1         0.1208524613E-02      0.3204966567E-02

    ------------------------------------------------
       NWT REQUIRED            5 OUTER ITERATIONS 
       AND A TOTAL OF          9 INNER ITERATIONS.
    ------------------------------------------------

 NO OUTPUT CONTROL FOR STRESS PERIOD   33   TIME STEP    8
 
 SOLVING FOR HEAD 
                                                   Max.-Head-Change                         Max.-Flux-Residual
  Residual-Control   Outer-Iter.   Inner-Iter.     Column Row Layer    Maximum-Head-Change  Column Row Layer    Maximum-Flux-Residual          L2-NORM 
          0                 1           2             5    6     1       0.4905232256E-01       5    6    1         0.2658699123E+01      0.6562039815E+01
          0                 2           2             4    7     1      -0.1206064569E+00       5    6    1        -0.6553497763E+01      0.1606145295E+02
          0                 3           2             4    7     1       0.1699220701E-01       5    6    1         0.9431218124E+00      0.2306620670E+01
          0                 4           2             4    7     1      -0.6761373844E-03       5    6    1        -0.3856732449E-01      0.9446578380E-01
          0                 5           1             4    7     1       0.8337064509E-05       5    6    1         0.4883261327E-03      0.1221712646E-02

    ------------------------------------------------
       NWT REQUIRED            5 OUTER ITERATIONS 
       AND A TOTAL OF          9 INNER ITERATIONS.
    ------------------------------------------------

 NO OUTPUT CONTROL FOR STRESS PERIOD   33   TIME STEP    9
 
 SOLVING FOR HEAD 
                                                   Max.-Head-Change                         Max.-Flux-Residual
  Residual-Control   Outer-Iter.   Inner-Iter.     Column Row Layer    Maximum-Head-Change  Column Row Layer    Maximum-Flux-Residual          L2-NORM 
          0                 1           2             5    6     1       0.5004914693E-01       5    8    1         0.2714053214E+01      0.6690512111E+01
          0                 2           2             5    6     1      -0.4411506794E-01       5    8    1        -0.2429158653E+01      0.5917278791E+01
          0                 3           2             4    7     1       0.4208644812E-01       5    8    1         0.2327796405E+01      0.5715952349E+01
          0                 4           2             4    7     1      -0.1674669198E-02       5    6    1        -0.9518423959E-01      0.2351099360E+00
          0                 5           1             4    7     1       0.2064938085E-04       5    6    1         0.1204718561E-02      0.3195402752E-02

    ------------------------------------------------
       NWT REQUIRED            5 OUTER ITERATIONS 
       AND A TOTAL OF          9 INNER ITERATIONS.
    ------------------------------------------------

 NO OUTPUT CONTROL FOR STRESS PERIOD   33   TIME STEP   10
 
 SOLVING FOR HEAD 
                                                   Max.-Head-Change                         Max.-Flux-Residual
  Residual-Control   Outer-Iter.   Inner-Iter.     Column Row Layer    Maximum-Head-Change  Column Row Layer    Maximum-Flux-Residual          L2-NORM 
          0                 1           2             5    6     1       0.4802338000E-01       5    6    1         0.2601150943E+01      0.6470096606E+01
          0                 2           2             4    7     1      -0.1205579792E+00       5    6    1        -0.6541290956E+01      0.1604043541E+02
          0                 3           2             4    7     1       0.1710586634E-01       5    6    1         0.9487160847E+00      0.2320955507E+01
          0                 4           2             4    7     1      -0.6806600279E-03       5    6    1        -0.3879572959E-01      0.9505070472E-01
          0                 5           1             4    7     1       0.8392830647E-05       5    6    1         0.4911934438E-03      0.1228935458E-02

    ------------------------------------------------
       NWT REQUIRED            5 OUTER ITERATIONS 
       AND A TOTAL OF          9 INNER ITERATIONS.
    ------------------------------------------------

 NO OUTPUT CONTROL FOR STRESS PERIOD   33   TIME STEP   11
 
 SOLVING FOR HEAD 
                                                   Max.-Head-Change                         Max.-Flux-Residual
  Residual-Control   Outer-Iter.   Inner-Iter.     Column Row Layer    Maximum-Head-Change  Column Row Layer    Maximum-Flux-Residual          L2-NORM 
          0                 1           2             5    6     1       0.4908625362E-01       5    6    1         0.2659134117E+01      0.6603329896E+01
          0                 2           2             5    7     1      -0.4410095963E-01       5    6    1        -0.2425536477E+01      0.5916735626E+01
          0                 3           2             4    7     1       0.4212735706E-01       5    6    1         0.2329412527E+01      0.5720544148E+01
          0                 4           2             4    7     1      -0.1676297047E-02       5    6    1        -0.9525040644E-01      0.2352989810E+00
          0                 5           1             4    7     1       0.2066945279E-04       5    6    1         0.1205540791E-02      0.3197935100E-02

    ------------------------------------------------
       NWT REQUIRED            5 OUTER ITERATIONS 
       AND A TOTAL OF          9 INNER ITERATIONS.
    ------------------------------------------------

 NO OUTPUT CONTROL FOR STRESS PERIOD   33   TIME STEP   12
 
 SOLVING FOR HEAD 
                                                   Max.-Head-Change                         Max.-Flux-Residual
  Residual-Control   Outer-Iter.   Inner-Iter.     Column Row Layer    Maximum-Head-Change  Column Row Layer    Maximum-Flux-Residual          L2-NORM 
          0                 1           2             5    6     1       0.4712862861E-01       5    6    1         0.2551110102E+01      0.6390542886E+01
          0                 2           2             4    7     1      -0.1206561936E+00       5    6    1        -0.6538164742E+01      0.1604056785E+02
          0                 3           2             4    7     1       0.1707854442E-01       5    6    1         0.9466168875E+00      0.2316371562E+01
          0                 4           2             4    7     1      -0.6795728673E-03       5    6    1        -0.3870959913E-01      0.9486284450E-01
          0                 5           1             4    7     1       0.8379425384E-05       5    6    1         0.4900833615E-03      0.1226683667E-02

    ------------------------------------------------
       NWT REQUIRED            5 OUTER ITERATIONS 
       AND A TOTAL OF          9 INNER ITERATIONS.
    ------------------------------------------------

 NO OUTPUT CONTROL FOR STRESS PERIOD   33   TIME STEP   13
 
 SOLVING FOR HEAD 
                                                   Max.-Head-Change                         Max.-Flux-Residual
  Residual-Control   Outer-Iter.   Inner-Iter.     Column Row Layer    Maximum-Head-Change  Column Row Layer    Maximum-Flux-Residual          L2-NORM 
          0                 1           2             5    6     1       0.4825657009E-01       5    6    1         0.2612725921E+01      0.6528644022E+01
          0                 2           2             5    7     1      -0.4407783206E-01       5    6    1        -0.2420351432E+01      0.5911004535E+01
          0                 3           2             4    7     1       0.4212090987E-01       5    6    1         0.2328505266E+01      0.5718833859E+01
          0                 4           2             4    7     1      -0.1676040525E-02       5    6    1        -0.9521311634E-01      0.2352283059E+00
          0                 5           1             4    7     1       0.2066628983E-04       5    6    1         0.1205055815E-02      0.3197243625E-02

    ------------------------------------------------
       NWT REQUIRED            5 OUTER ITERATIONS 
       AND A TOTAL OF          9 INNER ITERATIONS.
    ------------------------------------------------

 NO OUTPUT CONTROL FOR STRESS PERIOD   33   TIME STEP   14
 
 SOLVING FOR HEAD 
                                                   Max.-Head-Change                         Max.-Flux-Residual
  Residual-Control   Outer-Iter.   Inner-Iter.     Column Row Layer    Maximum-Head-Change  Column Row Layer    Maximum-Flux-Residual          L2-NORM 
          0                 1           2             5    6     1       0.4635787454E-01       5    6    1         0.2507992556E+01      0.6322465271E+01
          0                 2           2             4    7     1      -0.1207018585E+00       5    6    1        -0.6533306131E+01      0.1603538380E+02
          0                 3           2             4    7     1       0.1709157326E-01       5    6    1         0.9468205751E+00      0.2317348203E+01
          0                 4           2             4    7     1      -0.6800913076E-03       5    6    1        -0.3871766543E-01      0.9490214669E-01
          0                 5           1             4    7     1       0.8385818295E-05       5    6    1         0.4901676175E-03      0.1227139621E-02

    ------------------------------------------------
       NWT REQUIRED            5 OUTER ITERATIONS 
       AND A TOTAL OF          9 INNER ITERATIONS.
    ------------------------------------------------

 NO OUTPUT CONTROL FOR STRESS PERIOD   33   TIME STEP   15
 
 SOLVING FOR HEAD 
                                                   Max.-Head-Change                         Max.-Flux-Residual
  Residual-Control   Outer-Iter.   Inner-Iter.     Column Row Layer    Maximum-Head-Change  Column Row Layer    Maximum-Flux-Residual          L2-NORM 
          0                 1           2             5    6     1       0.4753998640E-01       5    6    1         0.2572632013E+01      0.6464333395E+01
          0                 2           2             5    7     1      -0.4406840496E-01       5    6    1        -0.2416500665E+01      0.5907619593E+01
          0                 3           2             4    7     1       0.4212761577E-01       5    6    1         0.2328394261E+01      0.5719011739E+01
          0                 4           2             4    7     1      -0.1676307382E-02       5    6    1        -0.9520840636E-01      0.2352355453E+00
          0                 5           1             4    7     1       0.2066958037E-04       4    8    1         0.1205038590E-02      0.3196879760E-02

    ------------------------------------------------
       NWT REQUIRED            5 OUTER ITERATIONS 
       AND A TOTAL OF          9 INNER ITERATIONS.
    ------------------------------------------------

 NO OUTPUT CONTROL FOR STRESS PERIOD   33   TIME STEP   16
 
 SOLVING FOR HEAD 
                                                   Max.-Head-Change                         Max.-Flux-Residual
  Residual-Control   Outer-Iter.   Inner-Iter.     Column Row Layer    Maximum-Head-Change  Column Row Layer    Maximum-Flux-Residual          L2-NORM 
          0                 1           2             5    6     1       0.4569234359E-01       5    6    1         0.2470747388E+01      0.6263889340E+01
          0                 2           2             4    7     1      -0.1207541644E+00       5    6    1        -0.6529741423E+01      0.1603248579E+02
          0                 3           2             4    7     1       0.1709226212E-01       5    6    1         0.9464094086E+00      0.2316754704E+01
          0                 4           2             4    7     1      -0.6801187255E-03       5    6    1        -0.3870062105E-01      0.9487733261E-01
          0                 5           1             4    7     1       0.8386156019E-05       5    6    1         0.4899361502E-03      0.1226811816E-02

    ------------------------------------------------
       NWT REQUIRED            5 OUTER ITERATIONS 
       AND A TOTAL OF          9 INNER ITERATIONS.
    ------------------------------------------------

 NO OUTPUT CONTROL FOR STRESS PERIOD   33   TIME STEP   17
 
 SOLVING FOR HEAD 
                                                   Max.-Head-Change                         Max.-Flux-Residual
  Residual-Control   Outer-Iter.   Inner-Iter.     Column Row Layer    Maximum-Head-Change  Column Row Layer    Maximum-Flux-Residual          L2-NORM 
          0                 1           2             5    6     1       0.4692212180E-01       5    6    1         0.2538045153E+01      0.6408985261E+01
          0                 2           2             5    7     1      -0.4405614454E-01       5    6    1        -0.2412995793E+01      0.5904280954E+01
          0                 3           2             4    7     1       0.4212993045E-01       5    6    1         0.2328102667E+01      0.5718685949E+01
          0                 4           2             4    7     1      -0.1676399503E-02       5    6    1        -0.9519633190E-01      0.2352222357E+00
          0                 5           1             4    7     1       0.2067071620E-04       4    8    1         0.1204980587E-02      0.3196889965E-02

    ------------------------------------------------
       NWT REQUIRED            5 OUTER ITERATIONS 
       AND A TOTAL OF          9 INNER ITERATIONS.
    ------------------------------------------------

 NO OUTPUT CONTROL FOR STRESS PERIOD   33   TIME STEP   18
 
 SOLVING FOR HEAD 
                                                   Max.-Head-Change                         Max.-Flux-Residual
  Residual-Control   Outer-Iter.   Inner-Iter.     Column Row Layer    Maximum-Head-Change  Column Row Layer    Maximum-Flux-Residual          L2-NORM 
          0                 1           2             5    6     1       0.4511890170E-01       5    6    1         0.2438637201E+01      0.6213562736E+01
          0                 2           2             4    7     1      -0.1207969332E+00       5    6    1        -0.6526483260E+01      0.1602956686E+02
          0                 3           2             4    7     1       0.1709603419E-01       5    6    1         0.9462259588E+00      0.2316662264E+01
          0                 4           2             4    7     1      -0.6802688273E-03       5    6    1        -0.3869291359E-01      0.9487300219E-01
          0                 5           1             4    7     1       0.8388007288E-05       5    6    1         0.4898246016E-03      0.1226749835E-02

    ------------------------------------------------
       NWT REQUIRED            5 OUTER ITERATIONS 
       AND A TOTAL OF          9 INNER ITERATIONS.
    ------------------------------------------------

 NO OUTPUT CONTROL FOR STRESS PERIOD   33   TIME STEP   19
 
 SOLVING FOR HEAD 
                                                   Max.-Head-Change                         Max.-Flux-Residual
  Residual-Control   Outer-Iter.   Inner-Iter.     Column Row Layer    Maximum-Head-Change  Column Row Layer    Maximum-Flux-Residual          L2-NORM 
          0                 1           2             5    6     1       0.4638983628E-01       5    6    1         0.2508228712E+01      0.6361339698E+01
          0                 2           2             5    7     1      -0.4404606556E-01       5    6    1        -0.2410028039E+01      0.5901569559E+01
          0                 3           2             4    7     1       0.4213304319E-01       5    6    1         0.2327908752E+01      0.5718549136E+01
          0                 4           2             4    7     1      -0.1676523378E-02       5    6    1        -0.9518826819E-01      0.2352164551E+00
          0                 5           1             4    7     1       0.2067224330E-04       4    8    1         0.1204960364E-02      0.3196305381E-02

    ------------------------------------------------
       NWT REQUIRED            5 OUTER ITERATIONS 
       AND A TOTAL OF          9 INNER ITERATIONS.
    ------------------------------------------------

 NO OUTPUT CONTROL FOR STRESS PERIOD   33   TIME STEP   20
 
 SOLVING FOR HEAD 
                                                   Max.-Head-Change                         Max.-Flux-Residual
  Residual-Control   Outer-Iter.   Inner-Iter.     Column Row Layer    Maximum-Head-Change  Column Row Layer    Maximum-Flux-Residual          L2-NORM 
          0                 1           2             5    6     1       0.4462523359E-01       5    6    1         0.2410972461E+01      0.6170325623E+01
          0                 2           2             4    7     1      -0.1208358325E+00       5    6    1        -0.6523730670E+01      0.1602722525E+02
          0                 3           2             4    7     1       0.1709844428E-01       5    6    1         0.9460175663E+00      0.2316460722E+01
          0                 4           2             4    7     1      -0.6803647334E-03       5    6    1        -0.3868420859E-01      0.9486421138E-01
          0                 5           1             4    7     1       0.8389189717E-05       5    6    1         0.4897019257E-03      0.1226602996E-02

    ------------------------------------------------
       NWT REQUIRED            5 OUTER ITERATIONS 
       AND A TOTAL OF          9 INNER ITERATIONS.
    ------------------------------------------------

 NO OUTPUT CONTROL FOR STRESS PERIOD   33   TIME STEP   21
 
 SOLVING FOR HEAD 
                                                   Max.-Head-Change                         Max.-Flux-Residual
  Residual-Control   Outer-Iter.   Inner-Iter.     Column Row Layer    Maximum-Head-Change  Column Row Layer    Maximum-Flux-Residual          L2-NORM 
          0                 1           2             5    6     1       0.4593231906E-01       5    6    1         0.2482576922E+01      0.6320380016E+01
          0                 2           2             4    7     1      -0.4405410663E-01       5    6    1        -0.2407458625E+01      0.5899237704E+01
          0                 3           2             4    7     1       0.4213548324E-01       5    6    1         0.2327724602E+01      0.5718390023E+01
          0                 4           2             4    7     1      -0.1676620484E-02       5    6    1        -0.9518061824E-01      0.2352140997E+00
          0                 5           1             4    7     1       0.2067344074E-04       4    8    1         0.1204934232E-02      0.3199264845E-02

    ------------------------------------------------
       NWT REQUIRED            5 OUTER ITERATIONS 
       AND A TOTAL OF          9 INNER ITERATIONS.
    ------------------------------------------------

 NO OUTPUT CONTROL FOR STRESS PERIOD   33   TIME STEP   22
 
 SOLVING FOR HEAD 
                                                   Max.-Head-Change                         Max.-Flux-Residual
  Residual-Control   Outer-Iter.   Inner-Iter.     Column Row Layer    Maximum-Head-Change  Column Row Layer    Maximum-Flux-Residual          L2-NORM 
          0                 1           2             5    6     1       0.4420133469E-01       5    6    1         0.2387192638E+01      0.6133223109E+01
          0                 2           2             4    7     1      -0.1208700272E+00       5    6    1        -0.6521348447E+01      0.1602521591E+02
          0                 3           2             4    7     1       0.1710086168E-01       5    6    1         0.9458534147E+00      0.2316324692E+01
          0                 4           2             4    7     1      -0.6804609290E-03       5    6    1        -0.3867733184E-01      0.9485803016E-01
          0                 5           1             4    7     1       0.8390375394E-05       5    6    1         0.4896037112E-03      0.1226472082E-02

    ------------------------------------------------
       NWT REQUIRED            5 OUTER ITERATIONS 
       AND A TOTAL OF          9 INNER ITERATIONS.
    ------------------------------------------------

 NO OUTPUT CONTROL FOR STRESS PERIOD   33   TIME STEP   23
 
 SOLVING FOR HEAD 
                                                   Max.-Head-Change                         Max.-Flux-Residual
  Residual-Control   Outer-Iter.   Inner-Iter.     Column Row Layer    Maximum-Head-Change  Column Row Layer    Maximum-Flux-Residual          L2-NORM 
          0                 1           2             5    6     1       0.4553961618E-01       5    6    1         0.2460533311E+01      0.6285197919E+01
          0                 2           2             4    7     1      -0.4408634863E-01       5    6    1        -0.2405255745E+01      0.5897290429E+01
          0                 3           2             4    7     1       0.4213775416E-01       5    6    1         0.2327571830E+01      0.5718271940E+01
          0                 4           2             4    7     1      -0.1676710860E-02       5    6    1        -0.9517426399E-01      0.2352093151E+00
          0                 5           1             4    7     1       0.2067455540E-04       4    8    1         0.1204915018E-02      0.3199317956E-02

    ------------------------------------------------
       NWT REQUIRED            5 OUTER ITERATIONS 
       AND A TOTAL OF          9 INNER ITERATIONS.
    ------------------------------------------------

 NO OUTPUT CONTROL FOR STRESS PERIOD   33   TIME STEP   24
 
 SOLVING FOR HEAD 
                                                   Max.-Head-Change                         Max.-Flux-Residual
  Residual-Control   Outer-Iter.   Inner-Iter.     Column Row Layer    Maximum-Head-Change  Column Row Layer    Maximum-Flux-Residual          L2-NORM 
          0                 1           2             5    6     1       0.4383796497E-01       5    6    1         0.2366781625E+01      0.6101455064E+01
          0                 2           2             4    7     1      -0.1209005465E+00       5    6    1        -0.6519309300E+01      0.1602355472E+02
          0                 3           2             4    7     1       0.1710291576E-01       5    6    1         0.9457072504E+00      0.2316198824E+01
          0                 4           2             4    7     1      -0.6805426678E-03       5    6    1        -0.3867120743E-01      0.9485237122E-01
          0                 5           1             4    7     1       0.8391383640E-05       5    6    1         0.4895161615E-03      0.1226383720E-02

    ------------------------------------------------
       NWT REQUIRED            5 OUTER ITERATIONS 
       AND A TOTAL OF          9 INNER ITERATIONS.
    ------------------------------------------------

 NO OUTPUT CONTROL FOR STRESS PERIOD   33   TIME STEP   25
 
 SOLVING FOR HEAD 
                                                   Max.-Head-Change                         Max.-Flux-Residual
  Residual-Control   Outer-Iter.   Inner-Iter.     Column Row Layer    Maximum-Head-Change  Column Row Layer    Maximum-Flux-Residual          L2-NORM 
          0                 1           2             5    6     1       0.4520346580E-01       5    6    1         0.2441636747E+01      0.6255043486E+01
          0                 2           2             4    7     1      -0.4411500111E-01       5    6    1        -0.2403365420E+01      0.5895664324E+01
          0                 3           2             4    7     1       0.4213973873E-01       5    6    1         0.2327438792E+01      0.5718169549E+01
          0                 4           2             4    7     1      -0.1676789838E-02       5    6    1        -0.9516872761E-01      0.2352050753E+00
          0                 5           1             4    7     1       0.2067552903E-04       4    7    1         0.1204942778E-02      0.3198924735E-02

    ------------------------------------------------
       NWT REQUIRED            5 OUTER ITERATIONS 
       AND A TOTAL OF          9 INNER ITERATIONS.
    ------------------------------------------------

 NO OUTPUT CONTROL FOR STRESS PERIOD   33   TIME STEP   26
 
 SOLVING FOR HEAD 
                                                   Max.-Head-Change                         Max.-Flux-Residual
  Residual-Control   Outer-Iter.   Inner-Iter.     Column Row Layer    Maximum-Head-Change  Column Row Layer    Maximum-Flux-Residual          L2-NORM 
          0                 1           2             5    6     1       0.4352760058E-01       5    6    1         0.2349319286E+01      0.6074320030E+01
          0                 2           2             4    7     1      -0.1209277114E+00       5    6    1        -0.6517562632E+01      0.1602218145E+02
          0                 3           2             4    7     1       0.1710479269E-01       5    6    1         0.9455845695E+00      0.2316099697E+01
          0                 4           2             4    7     1      -0.6806173570E-03       5    6    1        -0.3866605792E-01      0.9484781388E-01
          0                 5           1             4    7     1       0.8392304514E-05       5    7    1         0.4894590370E-03      0.1226277316E-02

    ------------------------------------------------
       NWT REQUIRED            5 OUTER ITERATIONS 
       AND A TOTAL OF          9 INNER ITERATIONS.
    ------------------------------------------------

 NO OUTPUT CONTROL FOR STRESS PERIOD   33   TIME STEP   27
 
 SOLVING FOR HEAD 
                                                   Max.-Head-Change                         Max.-Flux-Residual
  Residual-Control   Outer-Iter.   Inner-Iter.     Column Row Layer    Maximum-Head-Change  Column Row Layer    Maximum-Flux-Residual          L2-NORM 
          0                 1           2             5    6     1       0.4491703096E-01       5    6    1         0.2425504820E+01      0.6229280998E+01
          0                 2           2             4    7     1      -0.4414059783E-01       5    6    1        -0.2401752509E+01      0.5894329083E+01
          0                 3           2             4    7     1       0.4214152983E-01       5    6    1         0.2327326125E+01      0.5718088591E+01
          0                 4           2             4    7     1      -0.1676861118E-02       5    6    1        -0.9516403382E-01      0.2352022183E+00
          0                 5           1             4    7     1       0.2067640801E-04       4    7    1         0.1204994503E-02      0.3199357098E-02

    ------------------------------------------------
       NWT REQUIRED            5 OUTER ITERATIONS 
       AND A TOTAL OF          9 INNER ITERATIONS.
    ------------------------------------------------

 NO OUTPUT CONTROL FOR STRESS PERIOD   33   TIME STEP   28
 
 SOLVING FOR HEAD 
                                                   Max.-Head-Change                         Max.-Flux-Residual
  Residual-Control   Outer-Iter.   Inner-Iter.     Column Row Layer    Maximum-Head-Change  Column Row Layer    Maximum-Flux-Residual          L2-NORM 
          0                 1           2             5    6     1       0.4326345785E-01       5    6    1         0.2334426429E+01      0.6051228874E+01
          0                 2           2             4    7     1      -0.1209520096E+00       5    6    1        -0.6516073386E+01      0.1602106903E+02
          0                 3           2             4    7     1       0.1710645659E-01       5    6    1         0.9454790834E+00      0.2316016203E+01
          0                 4           2             4    7     1      -0.6806835690E-03       5    6    1        -0.3866162422E-01      0.9484390467E-01
          0                 5           1             4    7     1       0.8393120766E-05       5    7    1         0.4894392823E-03      0.1226177078E-02

    ------------------------------------------------
       NWT REQUIRED            5 OUTER ITERATIONS 
       AND A TOTAL OF          9 INNER ITERATIONS.
    ------------------------------------------------

 NO OUTPUT CONTROL FOR STRESS PERIOD   33   TIME STEP   29
 
 SOLVING FOR HEAD 
                                                   Max.-Head-Change                         Max.-Flux-Residual
  Residual-Control   Outer-Iter.   Inner-Iter.     Column Row Layer    Maximum-Head-Change  Column Row Layer    Maximum-Flux-Residual          L2-NORM 
          0                 1           2             5    8     1       0.2035754108E+00       5    8    1         0.1119495525E+02      0.1257274894E+02
          0                 2           2             4    7     1      -0.4415437702E-01       5    6    1        -0.2400377983E+01      0.5529338967E+01
          0                 3           2             4    7     1       0.4214069828E-01       5    6    1         0.2327229882E+01      0.5598141832E+01
          0                 4           2             5    8     1       0.4594229727E-02       5    8    1         0.2712030013E+00      0.3461434558E+00
          0                 5           1             5    8     1       0.5902358929E-03       5    8    1         0.3441767427E-01      0.3455354281E-01
          0                 6           1             5    8     1       0.7582468671E-04       5    8    1         0.4425236020E-02      0.4425919135E-02

    ------------------------------------------------
       NWT REQUIRED            6 OUTER ITERATIONS 
       AND A TOTAL OF         10 INNER ITERATIONS.
    ------------------------------------------------

 NO OUTPUT CONTROL FOR STRESS PERIOD   33   TIME STEP   30



 STREAM LISTING     PERIOD     33   STEP       30

 LAYER ROW COL. STREAM  RCH.  FLOW INTO     FLOW TO   FLOW OUT OF   OVRLND.     DIRECT     STREAM       STREAM     STREAM     STREAM   STREAMBED  STREAMBED
                SEG.NO.  NO.  STRM. RCH.    AQUIFER    STRM. RCH.    RUNOFF     PRECIP       ET          HEAD       DEPTH      WIDTH   CONDCTNC.   GRADIENT

   1    1    1     1     1    4.5749E+01  3.2289E-01   4.5426E+01  0.000E+00  0.000E+00  0.000E+00  1.09442E+03  1.372E+00  1.641E+01  7.386E-02  1.457E+00
   1    2    2     1     2    4.5426E+01  5.0022E-01   4.4925E+01  0.000E+00  0.000E+00  0.000E+00  1.08943E+03  1.369E+00  1.636E+01  1.145E-01  1.456E+00
   1    3    3     1     3    4.4925E+01  4.2678E-01   4.4499E+01  0.000E+00  0.000E+00  0.000E+00  1.08378E+03  1.366E+00  1.629E+01  9.776E-02  1.455E+00
   1    3    4     1     4    4.4499E+01  3.9314E-01   4.4106E+01  0.000E+00  0.000E+00  0.000E+00  1.07877E+03  1.363E+00  1.624E+01  9.011E-02  1.454E+00
   1    4    5     2     1    4.2106E+01  3.6245E-01   4.1743E+01  0.000E+00  0.000E+00  0.000E+00  1.07358E+03  1.647E+00  1.200E+01  7.800E-02  1.549E+00
   1    5    6     2     2    4.1743E+01  2.7835E-01   4.1465E+01  0.000E+00  0.000E+00  0.000E+00  1.06815E+03  1.639E+00  1.200E+01  6.000E-02  1.546E+00
   1    6    6     2     3    4.1465E+01  2.7796E-01   4.1187E+01  0.000E+00  0.000E+00  0.000E+00  1.06343E+03  1.633E+00  1.200E+01  6.000E-02  1.544E+00
   1    7    6     2     4    4.1187E+01  2.7756E-01   4.0909E+01  0.000E+00  0.000E+00  0.000E+00  1.05870E+03  1.626E+00  1.200E+01  6.000E-02  1.542E+00
   1    8    6     2     5    4.0909E+01  2.7716E-01   4.0632E+01  0.000E+00  0.000E+00  0.000E+00  1.05398E+03  1.619E+00  1.200E+01  6.000E-02  1.540E+00
   1    3    5     3     1    2.0000E+00  2.8252E-01   1.7175E+00  0.000E+00  0.000E+00  0.000E+00  1.07555E+03  1.909E+00  9.636E+00  7.227E-02  1.955E+00
   1    3    6     3     2    1.7175E+00  2.4905E-01   1.4684E+00  0.000E+00  0.000E+00  0.000E+00  1.07264E+03  1.727E+00  8.909E+00  6.682E-02  1.864E+00
   1    3    7     3     3    1.4684E+00  1.9718E-01   1.2712E+00  0.000E+00  0.000E+00  0.000E+00  1.06987E+03  1.555E+00  8.218E+00  5.547E-02  1.777E+00
   1    4    8     3     4    1.2712E+00  2.2567E-01   1.0456E+00  0.000E+00  0.000E+00  0.000E+00  1.06682E+03  1.364E+00  7.455E+00  6.709E-02  1.682E+00
   1    5    8     3     5    1.0456E+00  1.5790E-01   8.8768E-01  0.000E+00  0.000E+00  0.000E+00  1.06362E+03  1.164E+00  6.655E+00  4.991E-02  1.582E+00
   1    6    8     3     6    8.8768E-01  5.5980E-02   8.3170E-01  0.000E+00  0.000E+00  0.000E+00  1.06158E+03  1.036E+00  6.145E+00  1.844E-02  1.518E+00
   1    5   10     4     1    1.0000E+01  9.0919E-02   9.9091E+00  0.000E+00  0.000E+00  0.000E+00  1.07836E+03  6.368E-01  1.000E+01  2.500E-02  1.212E+00
   1    5    9     4     2    9.9091E+00  1.8158E-01   9.7275E+00  0.000E+00  0.000E+00  0.000E+00  1.07154E+03  6.315E-01  1.000E+01  5.000E-02  1.211E+00
   1    6    8     4     3    9.7275E+00  1.2689E-01   9.6006E+00  0.000E+00  0.000E+00  0.000E+00  1.06381E+03  6.256E-01  1.000E+01  3.500E-02  1.209E+00
   1    6    8     5     1    1.0432E+01  2.2686E-01   1.0205E+01  0.000E+00  0.000E+00  0.000E+00  1.05868E+03  6.790E-01  1.542E+01  6.166E-02  1.226E+00
   1    7    7     5     2    1.0205E+01  2.7894E-01   9.9265E+00  0.000E+00  0.000E+00  0.000E+00  1.05417E+03  6.732E-01  1.519E+01  7.594E-02  1.224E+00
   1    8    7     5     3    9.9265E+00  1.9221E-01   9.7343E+00  0.000E+00  0.000E+00  0.000E+00  1.04992E+03  6.676E-01  1.497E+01  5.241E-02  1.223E+00
   1    8    6     5     4    9.7343E+00  1.3577E-01   9.5985E+00  0.000E+00  0.000E+00  0.000E+00  1.04691E+03  6.637E-01  1.482E+01  3.706E-02  1.221E+00
   1    9    6     6     1    2.4320E+01  2.5184E-01   2.4068E+01  0.000E+00  0.000E+00  0.000E+00  1.04392E+03  1.197E+00  1.200E+01  6.000E-02  1.399E+00
   1   10    7     6     2    2.4068E+01  2.5139E-01   2.3817E+01  0.000E+00  0.000E+00  0.000E+00  1.03937E+03  1.190E+00  1.200E+01  6.000E-02  1.397E+00
   1   11    7     6     3    2.3817E+01  2.5094E-01   2.3566E+01  0.000E+00  0.000E+00  0.000E+00  1.03482E+03  1.182E+00  1.200E+01  6.000E-02  1.394E+00
   1   12    7     6     4    2.3566E+01  2.5049E-01   2.3316E+01  0.000E+00  0.000E+00  0.000E+00  1.03027E+03  1.175E+00  1.200E+01  6.000E-02  1.392E+00
   1   13    7     6     5    2.3316E+01  2.8896E-03   2.3313E+01  0.000E+00  0.000E+00  0.000E+00  1.02708E+03  1.171E+00  1.200E+01  2.400E-02  4.013E-02
   1   14    9     7     1    1.5000E+02  1.3450E+00   1.4866E+02  0.000E+00  0.000E+00  0.000E+00  1.03987E+03  2.288E+00  5.529E+01  5.593E-01  8.016E-01
   1   13    8     7     2    1.4866E+02  1.8652E+00   1.4679E+02  0.000E+00  0.000E+00  0.000E+00  1.03478E+03  2.279E+00  5.526E+01  6.148E-01  1.011E+00
   1   13    7     7     3    1.4679E+02  1.5244E+00   1.4527E+02  0.000E+00  0.000E+00  0.000E+00  1.02969E+03  2.270E+00  5.522E+01  5.584E-01  9.099E-01
   1   13    6     8     1    1.6858E+02  9.5669E-01   1.6762E+02  0.000E+00  0.000E+00  0.000E+00  1.02481E+03  2.940E+00  4.263E+01  4.344E-01  7.341E-01
   1   13    5     8     2    1.6762E+02  2.0447E-01   1.6742E+02  0.000E+00  0.000E+00  0.000E+00  1.01856E+03  2.936E+00  4.257E+01  4.338E-01  1.571E-01
   1   13    4     8     3    1.6742E+02 -2.2420E+00   1.6966E+02  0.000E+00  0.000E+00  0.000E+00  1.01232E+03  2.943E+00  4.267E+01  4.348E+00 -1.719E-01
   1   13    3     8     4    1.6966E+02 -3.4840E+00   1.7314E+02  0.000E+00  0.000E+00  0.000E+00  1.00609E+03  2.961E+00  4.294E+01  4.376E+00 -2.654E-01
   1   13    2     8     5    1.7314E+02 -2.4174E+00   1.7556E+02  0.000E+00  0.000E+00  0.000E+00  9.99855E+02  2.980E+00  4.321E+01  4.404E+00 -1.830E-01
   1   13    1     8     6    1.7556E+02 -1.8996E+00   1.7746E+02  0.000E+00  0.000E+00  0.000E+00  9.94869E+02  2.994E+00  4.341E+01  2.654E+00 -2.385E-01
   1    8    6     9     1    2.5910E+01  0.0000E+00   2.5910E+01  0.000E+00  0.000E+00  0.000E+00  1.08276E+03  4.012E+00  4.000E+00  0.000E+00  2.337E+00
   1    8    5     9     2    2.5910E+01  0.0000E+00   2.5910E+01  0.000E+00  0.000E+00  0.000E+00  1.08226E+03  4.012E+00  4.000E+00  0.000E+00  2.337E+00





UNSATURATED ZONE PACKAGE VOLUMETRIC BUDGET FOR  TIME STEP    30 STRESS PERIOD   33
  ------------------------------------------------------------------------------



     CUMULATIVE VOLUMES      L**3       RATES FOR THIS TIME STEP      L**3/T
     ------------------                 ------------------------

           IN:                                      IN:
           ---                                      ---
        INFILTRATION =  1783328396.3530          INFILTRATION =          30.3185

          OUT:                                     OUT:
          ----                                     ----
              UZF ET =  1438052234.4624                UZF ET =          52.9209
        UZF RECHARGE =     8176108.5161          UZF RECHARGE =          10.9755

            IN - OUT =   337100053.3746              IN - OUT =         -33.5779

          STORAGE:                                 STORAGE:
          --------                                 --------
      STORAGE CHANGE =   337100833.9319        STORAGE CHANGE =         -33.5779

 PERCENT DISCREPANCY IS DIFFERENCE BETWEEN IN-OUT MINUS CHANGE IN STORAGE
 DIVIDED BY THE AVERAGE OF IN AND OUT TIMES 100

 PERCENT DISCREPANCY =          -0.00     PERCENT DISCREPANCY =           0.00






1
  VOLUMETRIC BUDGET FOR AGRICULTURAL FIELDS AT  END OF TIME STEP   30, STRESS PERIOD  33
  ------------------------------------------------------------------------------

     CUMULATIVE VOLUMES      L**3       RATES FOR THIS TIME STEP      L**3/T
     ------------------                 ------------------------

           IN:                                      IN:
           ---                                      ---
               AG WELLS  =   514697344.0000                 AG WELLS  =           0.0000
      DIVERSION SEGMENTS =   897929984.0000        DIVERSION SEGMENTS =          25.9104
           GW IRRIGATION =           0.0000             GW IRRIGATION =           0.0000
           SW IRRIGATION =           0.0000             SW IRRIGATION =           0.0000
        SYSTEM LOSSES GW =           0.0000          SYSTEM LOSSES GW =           0.0000
        SYSTEM LOSSES SW =           0.0000          SYSTEM LOSSES SW =           0.0000

                TOTAL IN =  1412627328.0000                  TOTAL IN =          25.9104

          OUT:                                     OUT:
          ----                                     ----
               AG WELLS  =           0.0000                 AG WELLS  =           0.0000
      DIVERSION SEGMENTS =           0.0000        DIVERSION SEGMENTS =           0.0000
           GW IRRIGATION =   514697344.0000             GW IRRIGATION =           0.0000
           SW IRRIGATION =   897946944.0000             SW IRRIGATION =          25.9110
        SYSTEM LOSSES GW =           0.0000          SYSTEM LOSSES GW =           0.0000
        SYSTEM LOSSES SW =           0.0000          SYSTEM LOSSES SW =           0.0000

               TOTAL OUT =  1412644352.0000                 TOTAL OUT =          25.9110

                IN - OUT =      -17024.0000                  IN - OUT =      -5.1689E-04

     PERCENT DISCREPANCY =          -0.00         PERCENT DISCREPANCY =          -0.00



1
  VOLUMETRIC BUDGET FOR ENTIRE MODEL AT END OF TIME STEP   30, STRESS PERIOD  33
  ------------------------------------------------------------------------------

     CUMULATIVE VOLUMES      L**3       RATES FOR THIS TIME STEP      L**3/T
     ------------------                 ------------------------

           IN:                                      IN:
           ---                                      ---
             STORAGE     =   797454144.0000               STORAGE     =          11.5909
       CONSTANT HEAD     =           0.0000         CONSTANT HEAD     =           0.0000
     HEAD DEP BOUNDS     =    24085270.0000       HEAD DEP BOUNDS     =           0.2864
      STREAM LEAKAGE     =  1013239552.0000        STREAM LEAKAGE     =          12.4213
        UZF RECHARGE     =     8176109.0000          UZF RECHARGE     =          10.9755
               GW ET     =           0.0000                 GW ET     =           0.0000
     SURFACE LEAKAGE     =           0.0000       SURFACE LEAKAGE     =           0.0000
           AG WELLS      =           0.0000             AG WELLS      =           0.0000

                TOTAL IN =  1842955008.0000                  TOTAL IN =          35.2741

          OUT:                                     OUT:
          ----                                     ----
             STORAGE     =   397137440.0000               STORAGE     =          24.9422
       CONSTANT HEAD     =           0.0000         CONSTANT HEAD     =           0.0000
     HEAD DEP BOUNDS     =    24500188.0000       HEAD DEP BOUNDS     =           0.2882
      STREAM LEAKAGE     =   904018880.0000        STREAM LEAKAGE     =          10.0431
        UZF RECHARGE     =           0.0000          UZF RECHARGE     =           0.0000
               GW ET     =     2603293.0000                 GW ET     =           0.0000
     SURFACE LEAKAGE     =           0.0000       SURFACE LEAKAGE     =           0.0000
           AG WELLS      =   514697344.0000             AG WELLS      =           0.0000

               TOTAL OUT =  1842957184.0000                 TOTAL OUT =          35.2735

                IN - OUT =       -2176.0000                  IN - OUT =       5.7983E-04

     PERCENT DISCREPANCY =          -0.00         PERCENT DISCREPANCY =           0.00






         TIME SUMMARY AT END OF TIME STEP   30 IN STRESS PERIOD   33
                    SECONDS     MINUTES      HOURS       DAYS        YEARS
                    -----------------------------------------------------------
   TIME STEP LENGTH  87667.      1461.1      24.352      1.0147     2.77799E-03
 STRESS PERIOD TIME 2.63000E+06  43833.      730.56      30.440     8.33397E-02
         TOTAL TIME 8.42463E+07 1.40410E+06  23402.      975.07      2.6696    
1
1
                            STRESS PERIOD NO.   34, LENGTH =   2630000.    
                            -----------------------------------------------

                              NUMBER OF TIME STEPS =    30

                               MULTIPLIER FOR DELT =     1.000

                            INITIAL TIME STEP SIZE =   87666.66    

 REUSING NON-PARAMETER GHB CELLS FROM LAST STRESS PERIOD

      2 GHB CELLS

 REUSING STREAM SEGMENT DATA FROM LAST STRESS PERIOD



            AREAL INFILTRATION RATE
 READING ON UNIT   19 WITH FORMAT: (10F4.0)            

            1           2           3           4           5           6           7           8           9          10
 ........................................................................................................................
   1   1.2000E-09   0.000       0.000       0.000       0.000       0.000       0.000       0.000       0.000       0.000    
   2   2.1000E-09  2.0000E-09  8.0000E-10  8.5000E-09   0.000       0.000       0.000       0.000       0.000       0.000    
   3   5.0000E-10  1.1000E-09  8.8000E-09  5.5000E-09   0.000       0.000       0.000       0.000       0.000       0.000    
   4   8.5000E-09  1.1000E-09  1.1000E-09  1.1000E-09  2.0000E-09   0.000       0.000       0.000       0.000       0.000    
   5   8.5000E-09  1.1000E-09  1.1000E-09  1.1000E-09  1.1000E-09   0.000       0.000       0.000       0.000       0.000    
   6   8.5000E-09  5.2000E-09  2.1000E-09  1.1000E-09  1.5000E-09   0.000       0.000       0.000       0.000       0.000    
   7   8.5000E-09  5.2000E-09  2.1000E-09  1.2000E-09  2.0000E-09   0.000       0.000       0.000       0.000       0.000    
   8   5.0000E-10  5.2000E-09  2.1000E-09  1.2000E-09  5.0000E-09   0.000       0.000       0.000       0.000       0.000    
   9   5.0000E-10  5.2000E-09  2.1000E-09  1.2000E-09  5.0000E-09   0.000       0.000       0.000       0.000       0.000    
  10   5.0000E-10  5.2000E-09  2.1000E-09  1.2000E-09  5.8000E-09   0.000       0.000       0.000       0.000       0.000    
  11   1.0000E-10  1.1000E-09  1.1000E-09  1.2000E-09  5.0000E-09   0.000       0.000       0.000       0.000       0.000    
  12   1.1000E-09  1.1000E-09  1.1000E-09  1.1000E-09  2.0000E-09   0.000       0.000       0.000       0.000       0.000    
  13   1.1000E-09  2.2000E-09  2.2000E-09  2.1000E-09  1.0000E-09   0.000       0.000       0.000       0.000       0.000    
  14   2.0000E-10  5.5000E-09  5.5000E-09  5.2000E-09  1.0000E-09   0.000       0.000       0.000       0.000       0.000    
  15    0.000      8.8000E-09  8.8000E-09   0.000       0.000       0.000       0.000       0.000       0.000       0.000    

                  ET RATE =  7.500000E-08

 USING ET EXTINCTION DEPTH FROM PREVIOUS STRESS PERIOD. CURRENT PERIOD IS:      34

 USING EXTINCTION WATER CONTENT FROM PREVIOUS STRESS PERIOD. CURRENT PERIOD IS:      34

 USING AIR ENTRY PRESSURE FROM PREVIOUS STRESS PERIOD. CURRENT PERIOD IS:      34

 USING ROOT PRESSURE HEAD FROM PREVIOUS STRESS PERIOD. CURRENT PERIOD IS:      34

 USING ROOT ACTIVITY FROM PREVIOUS STRESS PERIOD. CURRENT PERIOD IS:      34

 PROCESSING AG STRESS PERIOD DATA

 READING AG STRESS PERIOD DATA

 READING IRRIGATION SEGMENT

 READING IRRIGATION WELL

 READING SUPPLEMENTAL WELL

 END PROCESSING AG STRESS PERIOD DATA OPTIONS
 
 SOLVING FOR HEAD 
                                                   Max.-Head-Change                         Max.-Flux-Residual
  Residual-Control   Outer-Iter.   Inner-Iter.     Column Row Layer    Maximum-Head-Change  Column Row Layer    Maximum-Flux-Residual          L2-NORM 
          0                 1           2             5    7     1       0.4499537583E-01       5    7    1         0.2400617804E+01      0.5913332912E+01
          0                 2           2             5    7     1      -0.4894226107E-02       5    7    1        -0.2726950658E+00      0.6441379046E+00
          0                 3           2             5    7     1       0.9235775068E-03       5    7    1         0.5176880773E-01      0.1216745575E+00
          0                 4           1             5    8     1       0.5971929219E-04       5    8    1         0.3358987894E-02      0.5748550763E-02

    ------------------------------------------------
       NWT REQUIRED            4 OUTER ITERATIONS 
       AND A TOTAL OF          7 INNER ITERATIONS.
    ------------------------------------------------

 NO OUTPUT CONTROL FOR STRESS PERIOD   34   TIME STEP    1
 
 SOLVING FOR HEAD 
                                                   Max.-Head-Change                         Max.-Flux-Residual
  Residual-Control   Outer-Iter.   Inner-Iter.     Column Row Layer    Maximum-Head-Change  Column Row Layer    Maximum-Flux-Residual          L2-NORM 
          0                 1           2             5    8     1       0.2123262911E+00       5    8    1         0.1166967148E+02      0.1289670333E+02
          0                 2           2             4    7     1      -0.3791484091E-01       5    7    1        -0.2059321774E+01      0.4702237086E+01
          0                 3           2             4    7     1       0.3565888139E-01       5    7    1         0.1969150830E+01      0.4742656529E+01
          0                 4           2             5    8     1       0.3923242428E-02       5    8    1         0.2315780632E+00      0.2945256919E+00
          0                 5           1             5    8     1       0.5040200667E-03       5    8    1         0.2939093613E-01      0.2950468517E-01
          0                 6           1             5    8     1       0.6474743235E-04       5    8    1         0.3778833403E-02      0.3779414243E-02

    ------------------------------------------------
       NWT REQUIRED            6 OUTER ITERATIONS 
       AND A TOTAL OF         10 INNER ITERATIONS.
    ------------------------------------------------

 NO OUTPUT CONTROL FOR STRESS PERIOD   34   TIME STEP    2
 
 SOLVING FOR HEAD 
                                                   Max.-Head-Change                         Max.-Flux-Residual
  Residual-Control   Outer-Iter.   Inner-Iter.     Column Row Layer    Maximum-Head-Change  Column Row Layer    Maximum-Flux-Residual          L2-NORM 
          0                 1           2             5    7     1       0.4604119587E-01       5    7    1         0.2463434760E+01      0.5618781062E+01
          0                 2           2             5    8     1       0.1168644897E-01       5    8    1         0.6527149454E+00      0.8574416564E+00
          0                 3           2             5    8     1       0.5121779019E-02       5    8    1         0.2824838446E+00      0.2846930867E+00
          0                 4           1             5    8     1       0.2250098877E-02       5    8    1         0.1243244145E+00      0.1243602146E+00
          0                 5           1             5    8     1       0.9695667714E-03       5    8    1         0.5359489367E-01      0.5369158386E-01
          0                 6           1             5    8     1       0.3846977604E-03       5    8    1         0.2132092794E-01      0.2202115274E-01
          0                 7           1             5    8     1       0.2627044739E-03       5    8    1         0.1435456401E-01      0.1843640689E-01
          0                 8           1             5    8     1       0.7964630055E-04       5    8    1         0.4457506017E-02      0.6287452493E-02

    ------------------------------------------------
       NWT REQUIRED            8 OUTER ITERATIONS 
       AND A TOTAL OF         11 INNER ITERATIONS.
    ------------------------------------------------

 NO OUTPUT CONTROL FOR STRESS PERIOD   34   TIME STEP    3
 
 SOLVING FOR HEAD 
                                                   Max.-Head-Change                         Max.-Flux-Residual
  Residual-Control   Outer-Iter.   Inner-Iter.     Column Row Layer    Maximum-Head-Change  Column Row Layer    Maximum-Flux-Residual          L2-NORM 
          0                 1           2             5    8     1       0.1690433598E+00       5    8    1         0.9269674025E+01      0.1068221121E+02
          0                 2           2             4    7     1      -0.3790910921E-01       5    7    1        -0.2067311589E+01      0.4730625162E+01
          0                 3           2             4    7     1       0.3565831096E-01       5    7    1         0.1969710902E+01      0.4735020065E+01
          0                 4           2             5    8     1       0.3891783329E-02       5    8    1         0.2293218469E+00      0.2932572886E+00
          0                 5           1             5    8     1       0.5010164761E-03       5    8    1         0.2916931595E-01      0.2930775671E-01
          0                 6           1             5    8     1       0.6449536095E-04       5    8    1         0.3758097098E-02      0.3758960295E-02

    ------------------------------------------------
       NWT REQUIRED            6 OUTER ITERATIONS 
       AND A TOTAL OF         10 INNER ITERATIONS.
    ------------------------------------------------

 NO OUTPUT CONTROL FOR STRESS PERIOD   34   TIME STEP    4
 
 SOLVING FOR HEAD 
                                                   Max.-Head-Change                         Max.-Flux-Residual
  Residual-Control   Outer-Iter.   Inner-Iter.     Column Row Layer    Maximum-Head-Change  Column Row Layer    Maximum-Flux-Residual          L2-NORM 
          0                 1           2             5    8     1       0.9815541116E-01       5    8    1         0.5339965424E+01      0.7524953258E+01
          0                 2           2             5    8     1       0.4323875089E-01       5    8    1         0.2392550803E+01      0.2457130825E+01
          0                 3           2             5    8     1       0.1906373028E-01       5    8    1         0.1051004099E+01      0.1051600930E+01
          0                 4           2             5    8     1       0.8442370954E-02       5    8    1         0.4656215717E+00      0.4656322396E+00
          0                 5           1             5    8     1       0.3701434307E-02       5    8    1         0.2041989381E+00      0.2042336224E+00
          0                 6           1             5    8     1       0.1586782109E-02       5    8    1         0.8759629391E-01      0.8780696466E-01
          0                 7           1             5    8     1       0.7942584767E-03       5    8    1         0.4365220320E-01      0.4519353768E-01
          0                 8           1             5    8     1       0.3059771973E-03       5    8    1         0.1694629827E-01      0.1780019866E-01
          0                 9           1             5    8     1       0.1065980335E-03       5    8    1         0.5928489609E-02      0.7329244611E-02
          0                10           1             4    7     1      -0.4073728066E-04       4    7    1        -0.2441605552E-02      0.6095318761E-02

    ------------------------------------------------
       NWT REQUIRED           10 OUTER ITERATIONS 
       AND A TOTAL OF         14 INNER ITERATIONS.
    ------------------------------------------------

 NO OUTPUT CONTROL FOR STRESS PERIOD   34   TIME STEP    5
 
 SOLVING FOR HEAD 
                                                   Max.-Head-Change                         Max.-Flux-Residual
  Residual-Control   Outer-Iter.   Inner-Iter.     Column Row Layer    Maximum-Head-Change  Column Row Layer    Maximum-Flux-Residual          L2-NORM 
          0                 1           2             5    7     1       0.4735449251E-01       5    7    1         0.2542595276E+01      0.5374386659E+01
          0                 2           2             5    7     1      -0.3821392921E-01       5    7    1        -0.2079261966E+01      0.4922674832E+01
          0                 3           2             4    7     1       0.3565786649E-01       5    7    1         0.1970547633E+01      0.4710793387E+01
          0                 4           2             5    8     1       0.3739751679E-02       5    8    1         0.2204623200E+00      0.2863900468E+00
          0                 5           1             5    8     1       0.4814239171E-03       5    8    1         0.2802755378E-01      0.2817163876E-01
          0                 6           1             5    8     1       0.6197059037E-04       5    8    1         0.3610966806E-02      0.3611836475E-02

    ------------------------------------------------
       NWT REQUIRED            6 OUTER ITERATIONS 
       AND A TOTAL OF         10 INNER ITERATIONS.
    ------------------------------------------------

 NO OUTPUT CONTROL FOR STRESS PERIOD   34   TIME STEP    6
 
 SOLVING FOR HEAD 
                                                   Max.-Head-Change                         Max.-Flux-Residual
  Residual-Control   Outer-Iter.   Inner-Iter.     Column Row Layer    Maximum-Head-Change  Column Row Layer    Maximum-Flux-Residual          L2-NORM 
          0                 1           2             5    8     1       0.1595341168E+00       5    8    1         0.8722362182E+01      0.1013350319E+02
          0                 2           2             5    8     1       0.2978923359E-01       5    8    1         0.1651060879E+01      0.1737701871E+01
          0                 3           2             5    8     1       0.2294752070E-02       5    8    1         0.1261061377E+00      0.1299430366E+00
          0                 4           1             5    8     1       0.2367277805E-03       5    8    1         0.1298537816E-01      0.1430350203E-01
          0                 5           1             4    7     1      -0.4496285762E-04       5    6    1        -0.2552820811E-02      0.6028040102E-02

    ------------------------------------------------
       NWT REQUIRED            5 OUTER ITERATIONS 
       AND A TOTAL OF          8 INNER ITERATIONS.
    ------------------------------------------------

 NO OUTPUT CONTROL FOR STRESS PERIOD   34   TIME STEP    7
 
 SOLVING FOR HEAD 
                                                   Max.-Head-Change                         Max.-Flux-Residual
  Residual-Control   Outer-Iter.   Inner-Iter.     Column Row Layer    Maximum-Head-Change  Column Row Layer    Maximum-Flux-Residual          L2-NORM 
          0                 1           2             5    7     1       0.4670122945E-01       5    7    1         0.2535865716E+01      0.5270971592E+01
          0                 2           2             5    7     1      -0.3820057134E-01       5    7    1        -0.2078586080E+01      0.4912269039E+01
          0                 3           2             5    8     1       0.3633764930E-01       5    8    1         0.2000074822E+01      0.4849096427E+01
          0                 4           2             5    8     1      -0.2474503644E-02       5    8    1        -0.1418208503E+00      0.2307076627E+00
          0                 5           1             5    8     1       0.9846244733E-04       5    8    1         0.5872364497E-02      0.6475299308E-02

    ------------------------------------------------
       NWT REQUIRED            5 OUTER ITERATIONS 
       AND A TOTAL OF          9 INNER ITERATIONS.
    ------------------------------------------------

 NO OUTPUT CONTROL FOR STRESS PERIOD   34   TIME STEP    8
 
 SOLVING FOR HEAD 
                                                   Max.-Head-Change                         Max.-Flux-Residual
  Residual-Control   Outer-Iter.   Inner-Iter.     Column Row Layer    Maximum-Head-Change  Column Row Layer    Maximum-Flux-Residual          L2-NORM 
          0                 1           2             5    8     1       0.1658651928E+00       5    8    1         0.9069714958E+01      0.1036720261E+02
          0                 2           2             5    8     1       0.1308461670E-01       5    8    1         0.7298073456E+00      0.8986442643E+00
          0                 3           2             5    8     1       0.1003894384E-02       5    8    1         0.5484959915E-01      0.6418379062E-01
          0                 4           1             4    7     1      -0.9537090401E-04       5    7    1        -0.5473032754E-02      0.1217937675E-01

    ------------------------------------------------
       NWT REQUIRED            4 OUTER ITERATIONS 
       AND A TOTAL OF          7 INNER ITERATIONS.
    ------------------------------------------------

 NO OUTPUT CONTROL FOR STRESS PERIOD   34   TIME STEP    9
 
 SOLVING FOR HEAD 
                                                   Max.-Head-Change                         Max.-Flux-Residual
  Residual-Control   Outer-Iter.   Inner-Iter.     Column Row Layer    Maximum-Head-Change  Column Row Layer    Maximum-Flux-Residual          L2-NORM 
          0                 1           2             4    8     1       0.4579650063E-01       5    7    1         0.2490907618E+01      0.5237905380E+01
          0                 2           2             5    7     1      -0.3806163190E-01       5    7    1        -0.2071470930E+01      0.4879826466E+01
          0                 3           2             5    8     1       0.3621152304E-01       5    8    1         0.1993029362E+01      0.4839706414E+01
          0                 4           2             5    8     1      -0.2465914459E-02       5    8    1        -0.1413259214E+00      0.2301645258E+00
          0                 5           1             5    8     1       0.9812067862E-04       5    8    1         0.5852054029E-02      0.6453638278E-02

    ------------------------------------------------
       NWT REQUIRED            5 OUTER ITERATIONS 
       AND A TOTAL OF          9 INNER ITERATIONS.
    ------------------------------------------------

 NO OUTPUT CONTROL FOR STRESS PERIOD   34   TIME STEP   10
 
 SOLVING FOR HEAD 
                                                   Max.-Head-Change                         Max.-Flux-Residual
  Residual-Control   Outer-Iter.   Inner-Iter.     Column Row Layer    Maximum-Head-Change  Column Row Layer    Maximum-Flux-Residual          L2-NORM 
          0                 1           2             4    8     1       0.4389220840E-01       4    8    1         0.2378851998E+01      0.5047176649E+01
          0                 2           2             4    8     1      -0.4320220769E-02       4    8    1        -0.2406371800E+00      0.5250873110E+00
          0                 3           2             4    8     1       0.2607931029E-03       4    8    1         0.1498092068E-01      0.3353956659E-01
          0                 4           1             5    7     1      -0.8832717073E-04       4    8    1        -0.5080638442E-02      0.1194385277E-01

    ------------------------------------------------
       NWT REQUIRED            4 OUTER ITERATIONS 
       AND A TOTAL OF          7 INNER ITERATIONS.
    ------------------------------------------------

 NO OUTPUT CONTROL FOR STRESS PERIOD   34   TIME STEP   11
 
 SOLVING FOR HEAD 
                                                   Max.-Head-Change                         Max.-Flux-Residual
  Residual-Control   Outer-Iter.   Inner-Iter.     Column Row Layer    Maximum-Head-Change  Column Row Layer    Maximum-Flux-Residual          L2-NORM 
          0                 1           2             4    8     1       0.4212394813E-01       4    8    1         0.2280149303E+01      0.4861382414E+01
          0                 2           2             4    7     1      -0.3771521371E-01       4    8    1        -0.2045973501E+01      0.4852016137E+01
          0                 3           2             5    8     1       0.3616703738E-01       5    8    1         0.1990693696E+01      0.4827325609E+01
          0                 4           2             5    8     1      -0.2462885190E-02       5    8    1        -0.1411561714E+00      0.2296343997E+00
          0                 5           1             5    8     1       0.9800014129E-04       5    8    1         0.5844863068E-02      0.6440927339E-02

    ------------------------------------------------
       NWT REQUIRED            5 OUTER ITERATIONS 
       AND A TOTAL OF          9 INNER ITERATIONS.
    ------------------------------------------------

 NO OUTPUT CONTROL FOR STRESS PERIOD   34   TIME STEP   12
 
 SOLVING FOR HEAD 
                                                   Max.-Head-Change                         Max.-Flux-Residual
  Residual-Control   Outer-Iter.   Inner-Iter.     Column Row Layer    Maximum-Head-Change  Column Row Layer    Maximum-Flux-Residual          L2-NORM 
          0                 1           2             4    8     1       0.4047411720E-01       4    8    1         0.2188155165E+01      0.4701630257E+01
          0                 2           2             4    8     1      -0.4058052766E-02       4    8    1        -0.2253849809E+00      0.4988688138E+00
          0                 3           2             5    8     1      -0.2336479510E-03       5    8    1        -0.1390761413E-01      0.2406612596E-01
          0                 4           2             5    8     1       0.1405779191E-03       5    8    1         0.8200419319E-02      0.1873016418E-01
          0                 5           1             4    7     1      -0.5638918649E-04       5    6    1        -0.3202928106E-02      0.7907647675E-02

    ------------------------------------------------
       NWT REQUIRED            5 OUTER ITERATIONS 
       AND A TOTAL OF          9 INNER ITERATIONS.
    ------------------------------------------------

 NO OUTPUT CONTROL FOR STRESS PERIOD   34   TIME STEP   13
 
 SOLVING FOR HEAD 
                                                   Max.-Head-Change                         Max.-Flux-Residual
  Residual-Control   Outer-Iter.   Inner-Iter.     Column Row Layer    Maximum-Head-Change  Column Row Layer    Maximum-Flux-Residual          L2-NORM 
          0                 1           2             4    8     1       0.3893840675E-01       4    8    1         0.2102603553E+01      0.4544233517E+01
          0                 2           2             4    7     1      -0.3761552338E-01       4    8    1        -0.2026035905E+01      0.4832749716E+01
          0                 3           2             5    8     1       0.3616824983E-01       5    8    1         0.1990868959E+01      0.4821048437E+01
          0                 4           2             5    8     1      -0.2462967899E-02       5    8    1        -0.1411647319E+00      0.2294069868E+00
          0                 5           1             5    8     1       0.9800343198E-04       5    8    1         0.5845065659E-02      0.6438414704E-02

    ------------------------------------------------
       NWT REQUIRED            5 OUTER ITERATIONS 
       AND A TOTAL OF          9 INNER ITERATIONS.
    ------------------------------------------------

 NO OUTPUT CONTROL FOR STRESS PERIOD   34   TIME STEP   14
 
 SOLVING FOR HEAD 
                                                   Max.-Head-Change                         Max.-Flux-Residual
  Residual-Control   Outer-Iter.   Inner-Iter.     Column Row Layer    Maximum-Head-Change  Column Row Layer    Maximum-Flux-Residual          L2-NORM 
          0                 1           2             4    7     1       0.3854568507E-01       4    8    1         0.2022677360E+01      0.4410025786E+01
          0                 2           2             4    7     1      -0.3891267822E-02       4    8    1        -0.2098779013E+00      0.4730697931E+00
          0                 3           2             4    7     1       0.3358337813E-03       4    8    1         0.1860057122E-01      0.4083700758E-01
          0                 4           1             4    7     1      -0.4089001419E-04       4    8    1        -0.2321809842E-02      0.5412959181E-02

    ------------------------------------------------
       NWT REQUIRED            4 OUTER ITERATIONS 
       AND A TOTAL OF          7 INNER ITERATIONS.
    ------------------------------------------------

 NO OUTPUT CONTROL FOR STRESS PERIOD   34   TIME STEP   15
 
 SOLVING FOR HEAD 
                                                   Max.-Head-Change                         Max.-Flux-Residual
  Residual-Control   Outer-Iter.   Inner-Iter.     Column Row Layer    Maximum-Head-Change  Column Row Layer    Maximum-Flux-Residual          L2-NORM 
          0                 1           2             5    7     1       0.1882743525E+00       5    7    1         0.1035234158E+02      0.1164616439E+02
          0                 2           2             4    7     1      -0.3670463262E-01       4    7    1        -0.2009032365E+01      0.4142771000E+01
          0                 3           2             5    8     1       0.3591360267E-01       5    8    1         0.1983631435E+01      0.4625281464E+01
          0                 4           2             5    7     1       0.4151612482E-02       5    7    1         0.2471425405E+00      0.3896528086E+00
          0                 5           2             5    7     1       0.5322097698E-03       5    7    1         0.3094760197E-01      0.4290125450E-01
          0                 6           1             5    7     1       0.6822235409E-04       5    7    1         0.3982394698E-02      0.5516674496E-02

    ------------------------------------------------
       NWT REQUIRED            6 OUTER ITERATIONS 
       AND A TOTAL OF         11 INNER ITERATIONS.
    ------------------------------------------------

 NO OUTPUT CONTROL FOR STRESS PERIOD   34   TIME STEP   16
 
 SOLVING FOR HEAD 
                                                   Max.-Head-Change                         Max.-Flux-Residual
  Residual-Control   Outer-Iter.   Inner-Iter.     Column Row Layer    Maximum-Head-Change  Column Row Layer    Maximum-Flux-Residual          L2-NORM 
          0                 1           2             4    7     1       0.4146292601E-01       4    7    1         0.2197649303E+01      0.4002724691E+01
          0                 2           2             4    7     1      -0.3936859744E-02       4    7    1        -0.2222199542E+00      0.4065503288E+00
          0                 3           2             4    7     1       0.2132128681E-03       4    7    1         0.1203247349E-01      0.2271615483E-01
          0                 4           2             4    7     1      -0.1271468285E-03       4    7    1        -0.7240491676E-02      0.1663998402E-01
          0                 5           2             5    8     1       0.1308252673E-03       5    8    1         0.7633452833E-02      0.1798774765E-01
          0                 6           1             5    8     1      -0.3779977695E-04       5    8    1        -0.2288051520E-02      0.4818457137E-02

    ------------------------------------------------
       NWT REQUIRED            6 OUTER ITERATIONS 
       AND A TOTAL OF         11 INNER ITERATIONS.
    ------------------------------------------------

 NO OUTPUT CONTROL FOR STRESS PERIOD   34   TIME STEP   17
 
 SOLVING FOR HEAD 
                                                   Max.-Head-Change                         Max.-Flux-Residual
  Residual-Control   Outer-Iter.   Inner-Iter.     Column Row Layer    Maximum-Head-Change  Column Row Layer    Maximum-Flux-Residual          L2-NORM 
          0                 1           2             4    7     1       0.4079029665E-01       4    7    1         0.2162597278E+01      0.3894265020E+01
          0                 2           2             4    7     1      -0.3748417769E-01       4    7    1        -0.2022512296E+01      0.4570789052E+01
          0                 3           2             5    8     1       0.3592567521E-01       5    8    1         0.1986121576E+01      0.4579550838E+01
          0                 4           2             4    8     1       0.3819621092E-02       4    8    1         0.2226454830E+00      0.3308974025E+00
          0                 5           2             4    8     1       0.4999924198E-03       4    8    1         0.2861848019E-01      0.3411838103E-01
          0                 6           1             4    8     1       0.6544479190E-04       4    8    1         0.3759314140E-02      0.4387014657E-02

    ------------------------------------------------
       NWT REQUIRED            6 OUTER ITERATIONS 
       AND A TOTAL OF         11 INNER ITERATIONS.
    ------------------------------------------------

 NO OUTPUT CONTROL FOR STRESS PERIOD   34   TIME STEP   18
 
 SOLVING FOR HEAD 
                                                   Max.-Head-Change                         Max.-Flux-Residual
  Residual-Control   Outer-Iter.   Inner-Iter.     Column Row Layer    Maximum-Head-Change  Column Row Layer    Maximum-Flux-Residual          L2-NORM 
          0                 1           2             4    7     1       0.4011625073E-01       4    7    1         0.2127382776E+01      0.3804615922E+01
          0                 2           2             4    7     1      -0.3828672776E-02       4    7    1        -0.2159456213E+00      0.3900552921E+00
          0                 3           2             4    7     1       0.1755739988E-03       4    7    1         0.9957881785E-02      0.1925054005E-01
          0                 4           1             4    8     1       0.9611199943E-04       4    8    1         0.5089234948E-02      0.1161495185E-01

    ------------------------------------------------
       NWT REQUIRED            4 OUTER ITERATIONS 
       AND A TOTAL OF          7 INNER ITERATIONS.
    ------------------------------------------------

 NO OUTPUT CONTROL FOR STRESS PERIOD   34   TIME STEP   19
 
 SOLVING FOR HEAD 
                                                   Max.-Head-Change                         Max.-Flux-Residual
  Residual-Control   Outer-Iter.   Inner-Iter.     Column Row Layer    Maximum-Head-Change  Column Row Layer    Maximum-Flux-Residual          L2-NORM 
          0                 1           2             4    7     1       0.3944265732E-01       4    7    1         0.2092104299E+01      0.3707819752E+01
          0                 2           2             4    7     1      -0.3298880989E-01       4    7    1        -0.1780787667E+01      0.3995683457E+01
          0                 3           2             5    8     1       0.3126985429E-01       5    8    1         0.1729032881E+01      0.3979471660E+01
          0                 4           2             4    8     1       0.3325388103E-02       4    8    1         0.1938295251E+00      0.2958107031E+00
          0                 5           2             4    8     1       0.4353173078E-03       4    8    1         0.2491561185E-01      0.3092112330E-01
          0                 6           1             4    8     1       0.5698202796E-04       4    8    1         0.3273030774E-02      0.3977758551E-02

    ------------------------------------------------
       NWT REQUIRED            6 OUTER ITERATIONS 
       AND A TOTAL OF         11 INNER ITERATIONS.
    ------------------------------------------------

 NO OUTPUT CONTROL FOR STRESS PERIOD   34   TIME STEP   20
 
 SOLVING FOR HEAD 
                                                   Max.-Head-Change                         Max.-Flux-Residual
  Residual-Control   Outer-Iter.   Inner-Iter.     Column Row Layer    Maximum-Head-Change  Column Row Layer    Maximum-Flux-Residual          L2-NORM 
          0                 1           2             4    7     1       0.3877137783E-01       4    7    1         0.2056878792E+01      0.3626002361E+01
          0                 2           2             4    7     1      -0.9257477688E-02       4    7    1        -0.5068741864E+00      0.9175716038E+00
          0                 3           2             4    7     1       0.5844237495E-02       4    7    1         0.3241692918E+00      0.7460838702E+00
          0                 4           2             4    8     1       0.6242549238E-03       4    8    1         0.3639214241E-01      0.6090892390E-01
          0                 5           1             4    8     1       0.7687525311E-04       4    8    1         0.4406248910E-02      0.6893138963E-02

    ------------------------------------------------
       NWT REQUIRED            5 OUTER ITERATIONS 
       AND A TOTAL OF          9 INNER ITERATIONS.
    ------------------------------------------------

 NO OUTPUT CONTROL FOR STRESS PERIOD   34   TIME STEP   21
 
 SOLVING FOR HEAD 
                                                   Max.-Head-Change                         Max.-Flux-Residual
  Residual-Control   Outer-Iter.   Inner-Iter.     Column Row Layer    Maximum-Head-Change  Column Row Layer    Maximum-Flux-Residual          L2-NORM 
          0                 1           2             4    7     1       0.3810378737E-01       4    7    1         0.2021769385E+01      0.3542718501E+01
          0                 2           2             4    7     1      -0.3162022612E-01       4    7    1        -0.1706905590E+01      0.3831342897E+01
          0                 3           2             4    7     1       0.2931040160E-01       4    7    1         0.1624208713E+01      0.3790882072E+01
          0                 4           2             4    8     1       0.3183108524E-02       4    8    1         0.1847720300E+00      0.2654004235E+00
          0                 5           2             4    8     1       0.4166889863E-03       4    8    1         0.2390655115E-01      0.2934322040E-01
          0                 6           1             4    8     1       0.5454326646E-04       4    8    1         0.3131588045E-02      0.3810577990E-02

    ------------------------------------------------
       NWT REQUIRED            6 OUTER ITERATIONS 
       AND A TOTAL OF         11 INNER ITERATIONS.
    ------------------------------------------------

 NO OUTPUT CONTROL FOR STRESS PERIOD   34   TIME STEP   22
 
 SOLVING FOR HEAD 
                                                   Max.-Head-Change                         Max.-Flux-Residual
  Residual-Control   Outer-Iter.   Inner-Iter.     Column Row Layer    Maximum-Head-Change  Column Row Layer    Maximum-Flux-Residual          L2-NORM 
          0                 1           2             4    7     1       0.3744157525E-01       4    7    1         0.1986902038E+01      0.3469431614E+01
          0                 2           2             4    7     1      -0.9313072188E-02       4    7    1        -0.5094387757E+00      0.9346886816E+00
          0                 3           2             4    7     1       0.6003222565E-02       4    7    1         0.3329903077E+00      0.7631722317E+00
          0                 4           2             4    8     1       0.6471597177E-03       4    8    1         0.3756022100E-01      0.5939511533E-01
          0                 5           1             4    8     1       0.7453792486E-04       4    8    1         0.4291790225E-02      0.6818286555E-02

    ------------------------------------------------
       NWT REQUIRED            5 OUTER ITERATIONS 
       AND A TOTAL OF          9 INNER ITERATIONS.
    ------------------------------------------------

 NO OUTPUT CONTROL FOR STRESS PERIOD   34   TIME STEP   23
 
 SOLVING FOR HEAD 
                                                   Max.-Head-Change                         Max.-Flux-Residual
  Residual-Control   Outer-Iter.   Inner-Iter.     Column Row Layer    Maximum-Head-Change  Column Row Layer    Maximum-Flux-Residual          L2-NORM 
          0                 1           2             4    7     1       0.3678513296E-01       4    7    1         0.1952274083E+01      0.3394105345E+01
          0                 2           2             4    7     1      -0.3115656446E-01       4    7    1        -0.1681614670E+01      0.3785252376E+01
          0                 3           2             4    7     1       0.2894883166E-01       4    7    1         0.1604097090E+01      0.3746235894E+01
          0                 4           2             4    8     1       0.3142723079E-02       4    8    1         0.1824323217E+00      0.2597051996E+00
          0                 5           2             4    8     1       0.4113927935E-03       4    8    1         0.2360314447E-01      0.2862756918E-01
          0                 6           1             4    8     1       0.5384878814E-04       4    8    1         0.3091784113E-02      0.3718685463E-02

    ------------------------------------------------
       NWT REQUIRED            6 OUTER ITERATIONS 
       AND A TOTAL OF         11 INNER ITERATIONS.
    ------------------------------------------------

 NO OUTPUT CONTROL FOR STRESS PERIOD   34   TIME STEP   24
 
 SOLVING FOR HEAD 
                                                   Max.-Head-Change                         Max.-Flux-Residual
  Residual-Control   Outer-Iter.   Inner-Iter.     Column Row Layer    Maximum-Head-Change  Column Row Layer    Maximum-Flux-Residual          L2-NORM 
          0                 1           2             4    7     1       0.3613617580E-01       4    7    1         0.1918013796E+01      0.3328046506E+01
          0                 2           2             4    7     1      -0.9665513310E-02       4    7    1        -0.5279578287E+00      0.9892202794E+00
          0                 3           2             4    7     1       0.6482623990E-02       4    7    1         0.3595697143E+00      0.8254294453E+00
          0                 4           2             4    8     1       0.6805273543E-03       4    8    1         0.3953846104E-01      0.6388945339E-01
          0                 5           2             4    8     1       0.1061338531E-03       4    8    1         0.6061261288E-02      0.9448723912E-02
          0                 6           1             4   13     1      -0.2967028744E-04       4   13    1        -0.1849511477E-02      0.3403690288E-02

    ------------------------------------------------
       NWT REQUIRED            6 OUTER ITERATIONS 
       AND A TOTAL OF         11 INNER ITERATIONS.
    ------------------------------------------------

 NO OUTPUT CONTROL FOR STRESS PERIOD   34   TIME STEP   25
 
 SOLVING FOR HEAD 
                                                   Max.-Head-Change                         Max.-Flux-Residual
  Residual-Control   Outer-Iter.   Inner-Iter.     Column Row Layer    Maximum-Head-Change  Column Row Layer    Maximum-Flux-Residual          L2-NORM 
          0                 1           2             4    7     1       0.3549509516E-01       4    7    1         0.1884117760E+01      0.3259428835E+01
          0                 2           2             4    7     1      -0.2971319102E-01       4    7    1        -0.1603762363E+01      0.3609423226E+01
          0                 3           2             4    7     1       0.2756763674E-01       4    7    1         0.1527610933E+01      0.3566556941E+01
          0                 4           2             4    8     1       0.2992158696E-02       4    8    1         0.1736929829E+00      0.2484446016E+00
          0                 5           2             4    8     1       0.3916835761E-03       4    8    1         0.2247230152E-01      0.2742476912E-01
          0                 6           1             4    8     1       0.5126898400E-04       4    8    1         0.2943653704E-02      0.3561888193E-02

    ------------------------------------------------
       NWT REQUIRED            6 OUTER ITERATIONS 
       AND A TOTAL OF         11 INNER ITERATIONS.
    ------------------------------------------------

 NO OUTPUT CONTROL FOR STRESS PERIOD   34   TIME STEP   26
 
 SOLVING FOR HEAD 
                                                   Max.-Head-Change                         Max.-Flux-Residual
  Residual-Control   Outer-Iter.   Inner-Iter.     Column Row Layer    Maximum-Head-Change  Column Row Layer    Maximum-Flux-Residual          L2-NORM 
          0                 1           2             4    7     1       0.3486260857E-01       4    7    1         0.1850656823E+01      0.3199110555E+01
          0                 2           2             4    7     1      -0.1138385554E-01       4    7    1        -0.6198084704E+00      0.1218697873E+01
          0                 3           2             4    7     1       0.8410273097E-02       4    7    1         0.4664295878E+00      0.1074787269E+01
          0                 4           2             4    8     1       0.9046242652E-03       4    8    1         0.5251397560E-01      0.8356172517E-01
          0                 5           2             4    8     1       0.1257005674E-03       4    8    1         0.7199384226E-02      0.1055434299E-01
          0                 6           1             4   13     1      -0.2501300272E-04       4   13    1        -0.1558942865E-02      0.3023523007E-02

    ------------------------------------------------
       NWT REQUIRED            6 OUTER ITERATIONS 
       AND A TOTAL OF         11 INNER ITERATIONS.
    ------------------------------------------------

 NO OUTPUT CONTROL FOR STRESS PERIOD   34   TIME STEP   27
 
 SOLVING FOR HEAD 
                                                   Max.-Head-Change                         Max.-Flux-Residual
  Residual-Control   Outer-Iter.   Inner-Iter.     Column Row Layer    Maximum-Head-Change  Column Row Layer    Maximum-Flux-Residual          L2-NORM 
          0                 1           2             4    7     1       0.3423909854E-01       4    7    1         0.1817629404E+01      0.3136449612E+01
          0                 2           2             4    7     1      -0.2838973197E-01       4    7    1        -0.1532366090E+01      0.3448627412E+01
          0                 3           2             4    7     1       0.2630837398E-01       4    7    1         0.1457865933E+01      0.3403010480E+01
          0                 4           2             4    8     1       0.2844513780E-02       4    8    1         0.1651291064E+00      0.2377673669E+00
          0                 5           2             4    8     1       0.3723571801E-03       4    8    1         0.2136331326E-01      0.2626503404E-01
          0                 6           1             4    8     1       0.4873937355E-04       4    8    1         0.2798399689E-02      0.3410600046E-02

    ------------------------------------------------
       NWT REQUIRED            6 OUTER ITERATIONS 
       AND A TOTAL OF         11 INNER ITERATIONS.
    ------------------------------------------------

 NO OUTPUT CONTROL FOR STRESS PERIOD   34   TIME STEP   28
 
 SOLVING FOR HEAD 
                                                   Max.-Head-Change                         Max.-Flux-Residual
  Residual-Control   Outer-Iter.   Inner-Iter.     Column Row Layer    Maximum-Head-Change  Column Row Layer    Maximum-Flux-Residual          L2-NORM 
          0                 1           2             4    7     1       0.3362522210E-01       4    7    1         0.1785098583E+01      0.3080944030E+01
          0                 2           2             4    7     1      -0.1203890781E-01       4    7    1        -0.6546104453E+00      0.1314110533E+01
          0                 3           2             4    7     1       0.9175057216E-02       4    7    1         0.5088350693E+00      0.1173769410E+01
          0                 4           2             4    8     1       0.1054513279E-02       5    7    1         0.6108331814E-01      0.9294912990E-01
          0                 5           2             4    7     1      -0.4436145091E-03       4    6    1        -0.2542336133E-01      0.5674480516E-01
          0                 6           2             5    7     1      -0.1976919136E-03       5    7    1        -0.1147364468E-01      0.2452773710E-01
          0                 7           2             4    7     1       0.5835892586E-03       5    8    1         0.3406880677E-01      0.8255943421E-01
          0                 8           2             4    8     1       0.1557349885E-03       5    7    1         0.9346438779E-02      0.1556580083E-01
          0                 9           1             4    8     1       0.5486249747E-04       4    8    1         0.3280130130E-02      0.5888493040E-02

    ------------------------------------------------
       NWT REQUIRED            9 OUTER ITERATIONS 
       AND A TOTAL OF         17 INNER ITERATIONS.
    ------------------------------------------------

 NO OUTPUT CONTROL FOR STRESS PERIOD   34   TIME STEP   29
 
 SOLVING FOR HEAD 
                                                   Max.-Head-Change                         Max.-Flux-Residual
  Residual-Control   Outer-Iter.   Inner-Iter.     Column Row Layer    Maximum-Head-Change  Column Row Layer    Maximum-Flux-Residual          L2-NORM 
          0                 1           2             4    7     1       0.3302093770E-01       4    7    1         0.1753047184E+01      0.3023177931E+01
          0                 2           2             4    7     1      -0.2571717657E-01       4    7    1        -0.1388579852E+01      0.3109572255E+01
          0                 3           2             4    7     1       0.2364452431E-01       4    7    1         0.1310473105E+01      0.3053209395E+01
          0                 4           2             4    8     1       0.2565869491E-02       4    8    1         0.1489434575E+00      0.2203388257E+00
          0                 5           2             4    8     1       0.3358945230E-03       4    8    1         0.1927069446E-01      0.2456883165E-01
          0                 6           1             4    8     1       0.4396826950E-04       4    8    1         0.2524354693E-02      0.3187665469E-02

    ------------------------------------------------
       NWT REQUIRED            6 OUTER ITERATIONS 
       AND A TOTAL OF         11 INNER ITERATIONS.
    ------------------------------------------------

 NO OUTPUT CONTROL FOR STRESS PERIOD   34   TIME STEP   30



 STREAM LISTING     PERIOD     34   STEP       30

 LAYER ROW COL. STREAM  RCH.  FLOW INTO     FLOW TO   FLOW OUT OF   OVRLND.     DIRECT     STREAM       STREAM     STREAM     STREAM   STREAMBED  STREAMBED
                SEG.NO.  NO.  STRM. RCH.    AQUIFER    STRM. RCH.    RUNOFF     PRECIP       ET          HEAD       DEPTH      WIDTH   CONDCTNC.   GRADIENT

   1    1    1     1     1    3.5249E+01  2.8720E-01   3.4962E+01  0.000E+00  0.000E+00  0.000E+00  1.09434E+03  1.294E+00  1.486E+01  6.688E-02  1.431E+00
   1    2    2     1     2    3.4962E+01  4.4466E-01   3.4517E+01  0.000E+00  0.000E+00  0.000E+00  1.08935E+03  1.291E+00  1.480E+01  1.036E-01  1.430E+00
   1    3    3     1     3    3.4517E+01  3.7911E-01   3.4138E+01  0.000E+00  0.000E+00  0.000E+00  1.08371E+03  1.288E+00  1.474E+01  8.841E-02  1.429E+00
   1    3    4     1     4    3.4138E+01  3.4901E-01   3.3789E+01  0.000E+00  0.000E+00  0.000E+00  1.07869E+03  1.285E+00  1.468E+01  8.145E-02  1.428E+00
   1    4    5     2     1    3.1789E+01  3.4244E-01   3.1446E+01  0.000E+00  0.000E+00  0.000E+00  1.07332E+03  1.390E+00  1.200E+01  7.800E-02  1.463E+00
   1    5    6     2     2    3.1446E+01  2.6294E-01   3.1184E+01  0.000E+00  0.000E+00  0.000E+00  1.06789E+03  1.382E+00  1.200E+01  6.000E-02  1.461E+00
   1    6    6     2     3    3.1184E+01  2.6252E-01   3.0921E+01  0.000E+00  0.000E+00  0.000E+00  1.06317E+03  1.375E+00  1.200E+01  6.000E-02  1.458E+00
   1    7    6     2     4    3.0921E+01  2.6210E-01   3.0659E+01  0.000E+00  0.000E+00  0.000E+00  1.05844E+03  1.368E+00  1.200E+01  6.000E-02  1.456E+00
   1    8    6     2     5    3.0659E+01  2.6168E-01   3.0397E+01  0.000E+00  0.000E+00  0.000E+00  1.05372E+03  1.361E+00  1.200E+01  6.000E-02  1.454E+00
   1    3    5     3     1    2.0000E+00  2.8252E-01   1.7175E+00  0.000E+00  0.000E+00  0.000E+00  1.07555E+03  1.909E+00  9.636E+00  7.227E-02  1.955E+00
   1    3    6     3     2    1.7175E+00  2.4905E-01   1.4684E+00  0.000E+00  0.000E+00  0.000E+00  1.07264E+03  1.727E+00  8.909E+00  6.682E-02  1.864E+00
   1    3    7     3     3    1.4684E+00  1.9718E-01   1.2712E+00  0.000E+00  0.000E+00  0.000E+00  1.06987E+03  1.555E+00  8.218E+00  5.547E-02  1.777E+00
   1    4    8     3     4    1.2712E+00  2.2567E-01   1.0456E+00  0.000E+00  0.000E+00  0.000E+00  1.06682E+03  1.364E+00  7.455E+00  6.709E-02  1.682E+00
   1    5    8     3     5    1.0456E+00  1.5790E-01   8.8768E-01  0.000E+00  0.000E+00  0.000E+00  1.06362E+03  1.164E+00  6.655E+00  4.991E-02  1.582E+00
   1    6    8     3     6    8.8768E-01  5.5980E-02   8.3170E-01  0.000E+00  0.000E+00  0.000E+00  1.06158E+03  1.036E+00  6.145E+00  1.844E-02  1.518E+00
   1    5   10     4     1    1.0000E+01  9.0919E-02   9.9091E+00  0.000E+00  0.000E+00  0.000E+00  1.07836E+03  6.368E-01  1.000E+01  2.500E-02  1.212E+00
   1    5    9     4     2    9.9091E+00  1.8158E-01   9.7275E+00  0.000E+00  0.000E+00  0.000E+00  1.07154E+03  6.315E-01  1.000E+01  5.000E-02  1.211E+00
   1    6    8     4     3    9.7275E+00  1.2689E-01   9.6006E+00  0.000E+00  0.000E+00  0.000E+00  1.06381E+03  6.256E-01  1.000E+01  3.500E-02  1.209E+00
   1    6    8     5     1    1.0432E+01  2.2686E-01   1.0205E+01  0.000E+00  0.000E+00  0.000E+00  1.05868E+03  6.790E-01  1.542E+01  6.166E-02  1.226E+00
   1    7    7     5     2    1.0205E+01  2.7894E-01   9.9265E+00  0.000E+00  0.000E+00  0.000E+00  1.05417E+03  6.732E-01  1.519E+01  7.594E-02  1.224E+00
   1    8    7     5     3    9.9265E+00  1.9221E-01   9.7343E+00  0.000E+00  0.000E+00  0.000E+00  1.04992E+03  6.676E-01  1.497E+01  5.241E-02  1.223E+00
   1    8    6     5     4    9.7343E+00  1.3577E-01   9.5985E+00  0.000E+00  0.000E+00  0.000E+00  1.04691E+03  6.637E-01  1.482E+01  3.706E-02  1.221E+00
   1    9    6     6     1    2.5437E+01  2.5381E-01   2.5183E+01  0.000E+00  0.000E+00  0.000E+00  1.04396E+03  1.230E+00  1.200E+01  6.000E-02  1.410E+00
   1   10    7     6     2    2.5183E+01  2.5336E-01   2.4929E+01  0.000E+00  0.000E+00  0.000E+00  1.03940E+03  1.223E+00  1.200E+01  6.000E-02  1.408E+00
   1   11    7     6     3    2.4929E+01  2.5292E-01   2.4676E+01  0.000E+00  0.000E+00  0.000E+00  1.03485E+03  1.215E+00  1.200E+01  6.000E-02  1.405E+00
   1   12    7     6     4    2.4676E+01  2.5247E-01   2.4424E+01  0.000E+00  0.000E+00  0.000E+00  1.03030E+03  1.208E+00  1.200E+01  6.000E-02  1.403E+00
   1   13    7     6     5    2.4424E+01  3.4965E-03   2.4420E+01  0.000E+00  0.000E+00  0.000E+00  1.02711E+03  1.204E+00  1.200E+01  2.400E-02  4.856E-02
   1   14    9     7     1    1.5000E+02  1.3457E+00   1.4865E+02  0.000E+00  0.000E+00  0.000E+00  1.03987E+03  2.288E+00  5.529E+01  5.593E-01  8.020E-01
   1   13    8     7     2    1.4865E+02  1.8679E+00   1.4679E+02  0.000E+00  0.000E+00  0.000E+00  1.03478E+03  2.279E+00  5.526E+01  6.148E-01  1.013E+00
   1   13    7     7     3    1.4679E+02  1.5201E+00   1.4527E+02  0.000E+00  0.000E+00  0.000E+00  1.02969E+03  2.270E+00  5.522E+01  5.584E-01  9.073E-01
   1   13    6     8     1    1.6969E+02  9.5969E-01   1.6873E+02  0.000E+00  0.000E+00  0.000E+00  1.02482E+03  2.947E+00  4.273E+01  4.355E-01  7.346E-01
   1   13    5     8     2    1.6873E+02  2.0535E-01   1.6852E+02  0.000E+00  0.000E+00  0.000E+00  1.01857E+03  2.943E+00  4.268E+01  4.349E-01  1.574E-01
   1   13    4     8     3    1.6852E+02 -2.3939E+00   1.7092E+02  0.000E+00  0.000E+00  0.000E+00  1.01233E+03  2.950E+00  4.278E+01  4.359E+00 -1.830E-01
   1   13    3     8     4    1.7092E+02 -3.6442E+00   1.7456E+02  0.000E+00  0.000E+00  0.000E+00  1.00609E+03  2.970E+00  4.306E+01  4.388E+00 -2.768E-01
   1   13    2     8     5    1.7456E+02 -2.6073E+00   1.7717E+02  0.000E+00  0.000E+00  0.000E+00  9.99865E+02  2.990E+00  4.335E+01  4.418E+00 -1.967E-01
   1   13    1     8     6    1.7717E+02 -1.9863E+00   1.7915E+02  0.000E+00  0.000E+00  0.000E+00  9.94880E+02  3.005E+00  4.357E+01  2.664E+00 -2.486E-01
   1    8    6     9     1    1.4559E+01  0.0000E+00   1.4559E+01  0.000E+00  0.000E+00  0.000E+00  1.08159E+03  2.839E+00  4.000E+00  0.000E+00  1.946E+00
   1    8    5     9     2    1.4559E+01  0.0000E+00   1.4559E+01  0.000E+00  0.000E+00  0.000E+00  1.08109E+03  2.839E+00  4.000E+00  0.000E+00  1.946E+00





UNSATURATED ZONE PACKAGE VOLUMETRIC BUDGET FOR  TIME STEP    30 STRESS PERIOD   34
  ------------------------------------------------------------------------------



     CUMULATIVE VOLUMES      L**3       RATES FOR THIS TIME STEP      L**3/T
     ------------------                 ------------------------

           IN:                                      IN:
           ---                                      ---
        INFILTRATION =  1823467829.5083          INFILTRATION =          18.9671

          OUT:                                     OUT:
          ----                                     ----
              UZF ET =  1478385414.9175                UZF ET =          15.3575
        UZF RECHARGE =    15409503.6430          UZF RECHARGE =           0.4233

            IN - OUT =   329672910.9478              IN - OUT =           3.1862

          STORAGE:                                 STORAGE:
          --------                                 --------
      STORAGE CHANGE =   329673689.5692        STORAGE CHANGE =           3.1862

 PERCENT DISCREPANCY IS DIFFERENCE BETWEEN IN-OUT MINUS CHANGE IN STORAGE
 DIVIDED BY THE AVERAGE OF IN AND OUT TIMES 100

 PERCENT DISCREPANCY =          -0.00     PERCENT DISCREPANCY =           0.00






1
  VOLUMETRIC BUDGET FOR AGRICULTURAL FIELDS AT  END OF TIME STEP   30, STRESS PERIOD  34
  ------------------------------------------------------------------------------

     CUMULATIVE VOLUMES      L**3       RATES FOR THIS TIME STEP      L**3/T
     ------------------                 ------------------------

           IN:                                      IN:
           ---                                      ---
               AG WELLS  =   514767936.0000                 AG WELLS  =           0.0000
      DIVERSION SEGMENTS =   926476928.0000        DIVERSION SEGMENTS =          14.5593
           GW IRRIGATION =           0.0000             GW IRRIGATION =           0.0000
           SW IRRIGATION =           0.0000             SW IRRIGATION =           0.0000
        SYSTEM LOSSES GW =           0.0000          SYSTEM LOSSES GW =           0.0000
        SYSTEM LOSSES SW =           0.0000          SYSTEM LOSSES SW =           0.0000

                TOTAL IN =  1441244928.0000                  TOTAL IN =          14.5593

          OUT:                                     OUT:
          ----                                     ----
               AG WELLS  =           0.0000                 AG WELLS  =           0.0000
      DIVERSION SEGMENTS =           0.0000        DIVERSION SEGMENTS =           0.0000
           GW IRRIGATION =   514767936.0000             GW IRRIGATION =           0.0000
           SW IRRIGATION =   926494528.0000             SW IRRIGATION =          14.5596
        SYSTEM LOSSES GW =           0.0000          SYSTEM LOSSES GW =           0.0000
        SYSTEM LOSSES SW =           0.0000          SYSTEM LOSSES SW =           0.0000

               TOTAL OUT =  1441262464.0000                 TOTAL OUT =          14.5596

                IN - OUT =      -17536.0000                  IN - OUT =      -2.9087E-04

     PERCENT DISCREPANCY =          -0.00         PERCENT DISCREPANCY =          -0.00



1
  VOLUMETRIC BUDGET FOR ENTIRE MODEL AT END OF TIME STEP   30, STRESS PERIOD  34
  ------------------------------------------------------------------------------

     CUMULATIVE VOLUMES      L**3       RATES FOR THIS TIME STEP      L**3/T
     ------------------                 ------------------------

           IN:                                      IN:
           ---                                      ---
             STORAGE     =   818313792.0000               STORAGE     =           5.7611
       CONSTANT HEAD     =           0.0000         CONSTANT HEAD     =           0.0000
     HEAD DEP BOUNDS     =    24838524.0000       HEAD DEP BOUNDS     =           0.2864
      STREAM LEAKAGE     =  1045452736.0000        STREAM LEAKAGE     =          12.1679
        UZF RECHARGE     =    15409501.0000          UZF RECHARGE     =           0.4233
               GW ET     =           0.0000                 GW ET     =           0.0000
     SURFACE LEAKAGE     =           0.0000       SURFACE LEAKAGE     =           0.0000
           AG WELLS      =           0.0000             AG WELLS      =           0.0000

                TOTAL IN =  1904014592.0000                  TOTAL IN =          18.6388

          OUT:                                     OUT:
          ----                                     ----
             STORAGE     =   430690208.0000               STORAGE     =           7.7168
       CONSTANT HEAD     =           0.0000         CONSTANT HEAD     =           0.0000
     HEAD DEP BOUNDS     =    25260932.0000       HEAD DEP BOUNDS     =           0.2898
      STREAM LEAKAGE     =   930693312.0000        STREAM LEAKAGE     =          10.6317
        UZF RECHARGE     =           0.0000          UZF RECHARGE     =           0.0000
               GW ET     =     2603293.0000                 GW ET     =           0.0000
     SURFACE LEAKAGE     =           0.0000       SURFACE LEAKAGE     =           0.0000
           AG WELLS      =   514767936.0000             AG WELLS      =           0.0000

               TOTAL OUT =  1904015616.0000                 TOTAL OUT =          18.6382

                IN - OUT =       -1024.0000                  IN - OUT =       5.9700E-04

     PERCENT DISCREPANCY =          -0.00         PERCENT DISCREPANCY =           0.00






         TIME SUMMARY AT END OF TIME STEP   30 IN STRESS PERIOD   34
                    SECONDS     MINUTES      HOURS       DAYS        YEARS
                    -----------------------------------------------------------
   TIME STEP LENGTH  87667.      1461.1      24.352      1.0147     2.77799E-03
 STRESS PERIOD TIME 2.63000E+06  43833.      730.56      30.440     8.33397E-02
         TOTAL TIME 8.68762E+07 1.44794E+06  24132.      1005.5      2.7529    
1
1
                            STRESS PERIOD NO.   35, LENGTH =   2630000.    
                            -----------------------------------------------

                              NUMBER OF TIME STEPS =    30

                               MULTIPLIER FOR DELT =     1.000

                            INITIAL TIME STEP SIZE =   87666.66    

 REUSING NON-PARAMETER GHB CELLS FROM LAST STRESS PERIOD

      2 GHB CELLS

 REUSING STREAM SEGMENT DATA FROM LAST STRESS PERIOD



            AREAL INFILTRATION RATE
 READING ON UNIT   19 WITH FORMAT: (10F4.0)            

            1           2           3           4           5           6           7           8           9          10
 ........................................................................................................................
   1   1.2000E-09   0.000       0.000       0.000       0.000       0.000       0.000       0.000       0.000       0.000    
   2   2.1000E-09  2.0000E-09  8.0000E-10  8.5000E-09   0.000       0.000       0.000       0.000       0.000       0.000    
   3   5.0000E-10  1.1000E-09  8.8000E-09  5.5000E-09   0.000       0.000       0.000       0.000       0.000       0.000    
   4   8.5000E-09  1.1000E-09  1.1000E-09  1.1000E-09  2.0000E-09   0.000       0.000       0.000       0.000       0.000    
   5   8.5000E-09  1.1000E-09  1.1000E-09  1.1000E-09  1.1000E-09   0.000       0.000       0.000       0.000       0.000    
   6   8.5000E-09  5.2000E-09  2.1000E-09  1.1000E-09  1.5000E-09   0.000       0.000       0.000       0.000       0.000    
   7   8.5000E-09  5.2000E-09  2.1000E-09  1.2000E-09  2.0000E-09   0.000       0.000       0.000       0.000       0.000    
   8   5.0000E-10  5.2000E-09  2.1000E-09  1.2000E-09  5.0000E-09   0.000       0.000       0.000       0.000       0.000    
   9   5.0000E-10  5.2000E-09  2.1000E-09  1.2000E-09  5.0000E-09   0.000       0.000       0.000       0.000       0.000    
  10   5.0000E-10  5.2000E-09  2.1000E-09  1.2000E-09  5.8000E-09   0.000       0.000       0.000       0.000       0.000    
  11   1.0000E-10  1.1000E-09  1.1000E-09  1.2000E-09  5.0000E-09   0.000       0.000       0.000       0.000       0.000    
  12   1.1000E-09  1.1000E-09  1.1000E-09  1.1000E-09  2.0000E-09   0.000       0.000       0.000       0.000       0.000    
  13   1.1000E-09  2.2000E-09  2.2000E-09  2.1000E-09  1.0000E-09   0.000       0.000       0.000       0.000       0.000    
  14   2.0000E-10  5.5000E-09  5.5000E-09  5.2000E-09  1.0000E-09   0.000       0.000       0.000       0.000       0.000    
  15    0.000      8.8000E-09  8.8000E-09   0.000       0.000       0.000       0.000       0.000       0.000       0.000    

                  ET RATE =  5.000000E-09

 USING ET EXTINCTION DEPTH FROM PREVIOUS STRESS PERIOD. CURRENT PERIOD IS:      35

 USING EXTINCTION WATER CONTENT FROM PREVIOUS STRESS PERIOD. CURRENT PERIOD IS:      35

 USING AIR ENTRY PRESSURE FROM PREVIOUS STRESS PERIOD. CURRENT PERIOD IS:      35

 USING ROOT PRESSURE HEAD FROM PREVIOUS STRESS PERIOD. CURRENT PERIOD IS:      35

 USING ROOT ACTIVITY FROM PREVIOUS STRESS PERIOD. CURRENT PERIOD IS:      35

 PROCESSING AG STRESS PERIOD DATA

 READING AG STRESS PERIOD DATA

 READING IRRIGATION SEGMENT

 READING IRRIGATION WELL

 READING SUPPLEMENTAL WELL

 END PROCESSING AG STRESS PERIOD DATA OPTIONS
 
 SOLVING FOR HEAD 
                                                   Max.-Head-Change                         Max.-Flux-Residual
  Residual-Control   Outer-Iter.   Inner-Iter.     Column Row Layer    Maximum-Head-Change  Column Row Layer    Maximum-Flux-Residual          L2-NORM 
          0                 1           2             4    7     1       0.3242713769E-01       4    7    1         0.1721537644E+01      0.2971333973E+01
          0                 2           2             4    7     1      -0.3066896542E-02       4    7    1        -0.1727266479E+00      0.2896347512E+00
          0                 3           2             4    7     1       0.2138883797E-03       4    7    1         0.1202296949E-01      0.2019052638E-01
          0                 4           1             4    8     1       0.1267801536E-04       4    8    1         0.6948154523E-03      0.1091192493E-02

    ------------------------------------------------
       NWT REQUIRED            4 OUTER ITERATIONS 
       AND A TOTAL OF          7 INNER ITERATIONS.
    ------------------------------------------------

 NO OUTPUT CONTROL FOR STRESS PERIOD   35   TIME STEP    1
 
 SOLVING FOR HEAD 
                                                   Max.-Head-Change                         Max.-Flux-Residual
  Residual-Control   Outer-Iter.   Inner-Iter.     Column Row Layer    Maximum-Head-Change  Column Row Layer    Maximum-Flux-Residual          L2-NORM 
          0                 1           2             4    7     1       0.3184366346E-01       4    7    1         0.1690559815E+01      0.2894677739E+01
          0                 2           2             4    7     1      -0.3895596869E-02       4    7    1        -0.2170420572E+00      0.3447932819E+00
          0                 3           2             4    7     1       0.1137850749E-02       4    7    1         0.6320458146E-01      0.1380949258E+00
          0                 4           1             4    8     1       0.7904880891E-04       4    8    1         0.4363235033E-02      0.7703558775E-02

    ------------------------------------------------
       NWT REQUIRED            4 OUTER ITERATIONS 
       AND A TOTAL OF          7 INNER ITERATIONS.
    ------------------------------------------------

 NO OUTPUT CONTROL FOR STRESS PERIOD   35   TIME STEP    2
 
 SOLVING FOR HEAD 
                                                   Max.-Head-Change                         Max.-Flux-Residual
  Residual-Control   Outer-Iter.   Inner-Iter.     Column Row Layer    Maximum-Head-Change  Column Row Layer    Maximum-Flux-Residual          L2-NORM 
          0                 1           2             4    7     1       0.3127058996E-01       4    7    1         0.1660119584E+01      0.2839650951E+01
          0                 2           2             4    7     1      -0.3744974574E-02       4    7    1        -0.2087993683E+00      0.3314281763E+00
          0                 3           2             4    7     1       0.1033714153E-02       4    7    1         0.5743230674E-01      0.1248710318E+00
          0                 4           1             4    8     1       0.7139513061E-04       4    8    1         0.3940924875E-02      0.6962532838E-02

    ------------------------------------------------
       NWT REQUIRED            4 OUTER ITERATIONS 
       AND A TOTAL OF          7 INNER ITERATIONS.
    ------------------------------------------------

 NO OUTPUT CONTROL FOR STRESS PERIOD   35   TIME STEP    3
 
 SOLVING FOR HEAD 
                                                   Max.-Head-Change                         Max.-Flux-Residual
  Residual-Control   Outer-Iter.   Inner-Iter.     Column Row Layer    Maximum-Head-Change  Column Row Layer    Maximum-Flux-Residual          L2-NORM 
          0                 1           2             4    7     1       0.3070807567E-01       4    7    1         0.1630226298E+01      0.2790990890E+01
          0                 2           2             4    7     1      -0.3729503338E-02       4    7    1        -0.2078147000E+00      0.3304423964E+00
          0                 3           2             4    7     1       0.1068652955E-02       4    7    1         0.5936480184E-01      0.1296070668E+00
          0                 4           1             4    8     1       0.7397664511E-04       4    8    1         0.4083659945E-02      0.7226340286E-02

    ------------------------------------------------
       NWT REQUIRED            4 OUTER ITERATIONS 
       AND A TOTAL OF          7 INNER ITERATIONS.
    ------------------------------------------------

 NO OUTPUT CONTROL FOR STRESS PERIOD   35   TIME STEP    4
 
 SOLVING FOR HEAD 
                                                   Max.-Head-Change                         Max.-Flux-Residual
  Residual-Control   Outer-Iter.   Inner-Iter.     Column Row Layer    Maximum-Head-Change  Column Row Layer    Maximum-Flux-Residual          L2-NORM 
          0                 1           2             4    7     1       0.3015630981E-01       4    7    1         0.1600891528E+01      0.2743952179E+01
          0                 2           2             4    7     1      -0.3698347763E-02       4    7    1        -0.2059922762E+00      0.3282116179E+00
          0                 3           2             4    7     1       0.1086419923E-02       4    7    1         0.6034595434E-01      0.1321149531E+00
          0                 4           1             4    8     1       0.7530325747E-04       4    8    1         0.4157096464E-02      0.7365455933E-02

    ------------------------------------------------
       NWT REQUIRED            4 OUTER ITERATIONS 
       AND A TOTAL OF          7 INNER ITERATIONS.
    ------------------------------------------------

 NO OUTPUT CONTROL FOR STRESS PERIOD   35   TIME STEP    5
 
 SOLVING FOR HEAD 
                                                   Max.-Head-Change                         Max.-Flux-Residual
  Residual-Control   Outer-Iter.   Inner-Iter.     Column Row Layer    Maximum-Head-Change  Column Row Layer    Maximum-Flux-Residual          L2-NORM 
          0                 1           2             4    7     1       0.2961531593E-01       4    7    1         0.1572118869E+01      0.2698435115E+01
          0                 2           2             4    7     1      -0.3660687887E-02       4    7    1        -0.2038246978E+00      0.3254721209E+00
          0                 3           2             4    7     1       0.1096513014E-02       4    7    1         0.6090196715E-01      0.1336249518E+00
          0                 4           1             4    8     1       0.7607218873E-04       4    8    1         0.4199728548E-02      0.7448903758E-02

    ------------------------------------------------
       NWT REQUIRED            4 OUTER ITERATIONS 
       AND A TOTAL OF          7 INNER ITERATIONS.
    ------------------------------------------------

 NO OUTPUT CONTROL FOR STRESS PERIOD   35   TIME STEP    6
 
 SOLVING FOR HEAD 
                                                   Max.-Head-Change                         Max.-Flux-Residual
  Residual-Control   Outer-Iter.   Inner-Iter.     Column Row Layer    Maximum-Head-Change  Column Row Layer    Maximum-Flux-Residual          L2-NORM 
          0                 1           2             4    7     1       0.2908495197E-01       4    7    1         0.1543901731E+01      0.2654347527E+01
          0                 2           2             4    7     1      -0.3617301105E-02       4    7    1        -0.2013535285E+00      0.3222640891E+00
          0                 3           2             4    7     1       0.1089153269E-02       4    7    1         0.6049349626E-01      0.1328216762E+00
          0                 4           1             4    8     1       0.7728812345E-04       4    8    1         0.4262700243E-02      0.7380721041E-02

    ------------------------------------------------
       NWT REQUIRED            4 OUTER ITERATIONS 
       AND A TOTAL OF          7 INNER ITERATIONS.
    ------------------------------------------------

 NO OUTPUT CONTROL FOR STRESS PERIOD   35   TIME STEP    7
 
 SOLVING FOR HEAD 
                                                   Max.-Head-Change                         Max.-Flux-Residual
  Residual-Control   Outer-Iter.   Inner-Iter.     Column Row Layer    Maximum-Head-Change  Column Row Layer    Maximum-Flux-Residual          L2-NORM 
          0                 1           2             5    8     1       0.5174302565E-01       5    8    1         0.2827134365E+01      0.3828747771E+01
          0                 2           2             5    8     1       0.1965696203E-01       5    8    1         0.1084179889E+01      0.1127121748E+01
          0                 3           2             5    8     1       0.8637430385E-02       5    8    1         0.4751089848E+00      0.4912302505E+00
          0                 4           2             5    8     1       0.3420156225E-02       5    8    1         0.1886066521E+00      0.1888190700E+00
          0                 5           1             5    8     1       0.1353541271E-02       5    8    1         0.7467743376E-01      0.7469265560E-01
          0                 6           1             5    8     1       0.5362195838E-03       5    8    1         0.2958612397E-01      0.2959086964E-01
          0                 7           1             5    8     1       0.2129791176E-03       5    8    1         0.1175041970E-01      0.1175349353E-01
          0                 8           1             5    8     1       0.8505706943E-04       5    8    1         0.4691916185E-02      0.4694970096E-02

    ------------------------------------------------
       NWT REQUIRED            8 OUTER ITERATIONS 
       AND A TOTAL OF         12 INNER ITERATIONS.
    ------------------------------------------------

 NO OUTPUT CONTROL FOR STRESS PERIOD   35   TIME STEP    8
 
 SOLVING FOR HEAD 
                                                   Max.-Head-Change                         Max.-Flux-Residual
  Residual-Control   Outer-Iter.   Inner-Iter.     Column Row Layer    Maximum-Head-Change  Column Row Layer    Maximum-Flux-Residual          L2-NORM 
          0                 1           2             5    8     1       0.1869676448E+00       5    8    1         0.1028744103E+02      0.1060888553E+02
          0                 2           2             5    8     1       0.7309417105E-01       5    8    1         0.4033238031E+01      0.4045319983E+01
          0                 3           2             5    8     1       0.2974904013E-01       5    8    1         0.1640121160E+01      0.1645502438E+01
          0                 4           2             5    8     1       0.1176279768E-01       5    8    1         0.6489915861E+00      0.6491478049E+00
          0                 5           2             5    8     1       0.4650387335E-02       5    8    1         0.2566114170E+00      0.2566388651E+00
          0                 6           1             5    8     1       0.1839138744E-02       5    8    1         0.1014867568E+00      0.1014966298E+00
          0                 7           1             5    8     1       0.7279526711E-03       5    8    1         0.4016875051E-01      0.4017342861E-01
          0                 8           1             5    8     1       0.2886472852E-03       5    8    1         0.1592676544E-01      0.1592964208E-01
          0                 9           1             5    8     1       0.1148825847E-03       5    8    1         0.6338126226E-02      0.6340567063E-02
          0                10           1             5    8     1       0.4607983359E-04       5    8    1         0.2541599287E-02      0.2544410654E-02

    ------------------------------------------------
       NWT REQUIRED           10 OUTER ITERATIONS 
       AND A TOTAL OF         15 INNER ITERATIONS.
    ------------------------------------------------

 NO OUTPUT CONTROL FOR STRESS PERIOD   35   TIME STEP    9
 
 SOLVING FOR HEAD 
                                                   Max.-Head-Change                         Max.-Flux-Residual
  Residual-Control   Outer-Iter.   Inner-Iter.     Column Row Layer    Maximum-Head-Change  Column Row Layer    Maximum-Flux-Residual          L2-NORM 
          0                 1           2             5    8     1       0.1680394271E+00       5    8    1         0.9228359060E+01      0.9644444280E+01
          0                 2           2             5    8     1       0.6563965940E-01       5    8    1         0.3622120363E+01      0.3636307050E+01
          0                 3           2             5    8     1       0.2683787190E-01       5    8    1         0.1478529408E+01      0.1484417378E+01
          0                 4           2             5    8     1       0.1062036086E-01       5    8    1         0.5856108962E+00      0.5857660335E+00
          0                 5           1             5    8     1       0.4202156899E-02       5    8    1         0.2317395731E+00      0.2317647096E+00
          0                 6           1             5    8     1       0.1663349428E-02       5    8    1         0.9173218667E-01      0.9174120173E-01
          0                 7           1             5    8     1       0.6590679062E-03       5    8    1         0.3634598777E-01      0.3635045464E-01
          0                 8           1             5    8     1       0.2616991871E-03       5    8    1         0.1443110087E-01      0.1443405952E-01
          0                 9           1             5    8     1       0.1043777671E-03       5    8    1         0.5754965733E-02      0.5757726349E-02
          0                10           1             5    8     1       0.4201565757E-04       5    8    1         0.2315888804E-02      0.2319301531E-02

    ------------------------------------------------
       NWT REQUIRED           10 OUTER ITERATIONS 
       AND A TOTAL OF         14 INNER ITERATIONS.
    ------------------------------------------------

 NO OUTPUT CONTROL FOR STRESS PERIOD   35   TIME STEP   10
 
 SOLVING FOR HEAD 
                                                   Max.-Head-Change                         Max.-Flux-Residual
  Residual-Control   Outer-Iter.   Inner-Iter.     Column Row Layer    Maximum-Head-Change  Column Row Layer    Maximum-Flux-Residual          L2-NORM 
          0                 1           2             5    8     1       0.1514852375E+00       5    8    1         0.8298227904E+01      0.8834023759E+01
          0                 2           2             5    8     1       0.5916355326E-01       5    8    1         0.3262967027E+01      0.3279815612E+01
          0                 3           2             5    8     1       0.2425469724E-01       5    8    1         0.1336033582E+01      0.1342538539E+01
          0                 4           2             5    8     1       0.9598594695E-02       5    8    1         0.5292433216E+00      0.5294041303E+00
          0                 5           1             5    8     1       0.3798041542E-02       5    8    1         0.2094505266E+00      0.2094754196E+00
          0                 6           1             5    8     1       0.1503586853E-02       5    8    1         0.8291993260E-01      0.8292888553E-01
          0                 7           1             5    8     1       0.5959667075E-03       5    8    1         0.3286537358E-01      0.3286998420E-01
          0                 8           1             5    8     1       0.2368263571E-03       5    8    1         0.1305903973E-01      0.1306231177E-01
          0                 9           1             5    8     1       0.9461468866E-04       5    8    1         0.5216331092E-02      0.5219598791E-02

    ------------------------------------------------
       NWT REQUIRED            9 OUTER ITERATIONS 
       AND A TOTAL OF         13 INNER ITERATIONS.
    ------------------------------------------------

 NO OUTPUT CONTROL FOR STRESS PERIOD   35   TIME STEP   11
 
 SOLVING FOR HEAD 
                                                   Max.-Head-Change                         Max.-Flux-Residual
  Residual-Control   Outer-Iter.   Inner-Iter.     Column Row Layer    Maximum-Head-Change  Column Row Layer    Maximum-Flux-Residual          L2-NORM 
          0                 1           2             5    8     1       0.1368950295E+00       5    8    1         0.7483709369E+01      0.8157181167E+01
          0                 2           2             5    8     1       0.5340978287E-01       5    8    1         0.2945867559E+01      0.2965903314E+01
          0                 3           2             5    8     1       0.2197708796E-01       5    8    1         0.1210406760E+01      0.1217555232E+01
          0                 4           2             5    8     1       0.8697687667E-02       5    8    1         0.4795773670E+00      0.4797419001E+00
          0                 5           1             5    8     1       0.3441704414E-02       5    8    1         0.1898059540E+00      0.1898297567E+00
          0                 6           1             5    8     1       0.1362681139E-02       5    8    1         0.7515192482E-01      0.7516046086E-01
          0                 7           1             5    8     1       0.5402818626E-03       5    8    1         0.2979546243E-01      0.2980003608E-01
          0                 8           1             5    8     1       0.2148471442E-03       5    8    1         0.1184727814E-01      0.1185073230E-01
          0                 9           1             5    8     1       0.8596251093E-04       5    8    1         0.4739278963E-02      0.4742919589E-02

    ------------------------------------------------
       NWT REQUIRED            9 OUTER ITERATIONS 
       AND A TOTAL OF         13 INNER ITERATIONS.
    ------------------------------------------------

 NO OUTPUT CONTROL FOR STRESS PERIOD   35   TIME STEP   12
 
 SOLVING FOR HEAD 
                                                   Max.-Head-Change                         Max.-Flux-Residual
  Residual-Control   Outer-Iter.   Inner-Iter.     Column Row Layer    Maximum-Head-Change  Column Row Layer    Maximum-Flux-Residual          L2-NORM 
          0                 1           2             5    8     1       0.1239986111E+00       5    8    1         0.6764262855E+01      0.7588998862E+01
          0                 2           2             5    8     1       0.4822549039E-01       5    8    1         0.2662731495E+01      0.2686323704E+01
          0                 3           2             5    8     1       0.1989952932E-01       5    8    1         0.1096867086E+01      0.1104693627E+01
          0                 4           2             5    8     1       0.7866500100E-02       5    8    1         0.4341690236E+00      0.4343379202E+00
          0                 5           1             5    8     1       0.3109259906E-02       5    8    1         0.1716420585E+00      0.1716650020E+00
          0                 6           1             5    8     1       0.1229788965E-02       5    8    1         0.6789028852E-01      0.6789853805E-01
          0                 7           1             5    8     1       0.4872130091E-03       5    8    1         0.2689531872E-01      0.2689997836E-01
          0                 8           1             5    8     1       0.1936960031E-03       5    8    1         0.1069129712E-01      0.1069507263E-01
          0                 9           1             5    8     1       0.7756653881E-04       5    8    1         0.4280386510E-02      0.4284650184E-02

    ------------------------------------------------
       NWT REQUIRED            9 OUTER ITERATIONS 
       AND A TOTAL OF         13 INNER ITERATIONS.
    ------------------------------------------------

 NO OUTPUT CONTROL FOR STRESS PERIOD   35   TIME STEP   13
 
 SOLVING FOR HEAD 
                                                   Max.-Head-Change                         Max.-Flux-Residual
  Residual-Control   Outer-Iter.   Inner-Iter.     Column Row Layer    Maximum-Head-Change  Column Row Layer    Maximum-Flux-Residual          L2-NORM 
          0                 1           2             5    8     1       0.1123768989E+00       5    8    1         0.6121466507E+01      0.7107782788E+01
          0                 2           2             5    8     1       0.4368670013E-01       5    8    1         0.2412409452E+01      0.2440155890E+01
          0                 3           2             5    8     1       0.1810432734E-01       5    8    1         0.9977530895E+00      0.1006304534E+01
          0                 4           2             5    8     1       0.7157313899E-02       5    8    1         0.3950336759E+00      0.3952073609E+00
          0                 5           1             5    8     1       0.2829128454E-02       5    8    1         0.1561831593E+00      0.1562053209E+00
          0                 6           1             5    8     1       0.1119175525E-02       5    8    1         0.6178612705E-01      0.6179411711E-01
          0                 7           1             5    8     1       0.4435692657E-03       5    8    1         0.2448679925E-01      0.2449151690E-01
          0                 8           1             5    8     1       0.1765042400E-03       5    8    1         0.9742507033E-02      0.9746586472E-02
          0                 9           1             5    8     1       0.7081826962E-04       5    8    1         0.3907919197E-02      0.3912730162E-02

    ------------------------------------------------
       NWT REQUIRED            9 OUTER ITERATIONS 
       AND A TOTAL OF         13 INNER ITERATIONS.
    ------------------------------------------------

 NO OUTPUT CONTROL FOR STRESS PERIOD   35   TIME STEP   14
 
 SOLVING FOR HEAD 
                                                   Max.-Head-Change                         Max.-Flux-Residual
  Residual-Control   Outer-Iter.   Inner-Iter.     Column Row Layer    Maximum-Head-Change  Column Row Layer    Maximum-Flux-Residual          L2-NORM 
          0                 1           2             5    8     1       0.6261834656E-01       5    8    1         0.3367942432E+01      0.5046870973E+01
          0                 2           2             4    7     1      -0.3450701675E-02       4    7    1        -0.1947840550E+00      0.3806490697E+00
          0                 3           2             4    7     1       0.1061623139E-02       4    7    1         0.5876268173E-01      0.1335315431E+00
          0                 4           1             4    8     1       0.8927865271E-04       4    8    1         0.4855247077E-02      0.7926254403E-02

    ------------------------------------------------
       NWT REQUIRED            4 OUTER ITERATIONS 
       AND A TOTAL OF          7 INNER ITERATIONS.
    ------------------------------------------------

 NO OUTPUT CONTROL FOR STRESS PERIOD   35   TIME STEP   15
 
 SOLVING FOR HEAD 
                                                   Max.-Head-Change                         Max.-Flux-Residual
  Residual-Control   Outer-Iter.   Inner-Iter.     Column Row Layer    Maximum-Head-Change  Column Row Layer    Maximum-Flux-Residual          L2-NORM 
          0                 1           2             5    8     1      -0.8428670218E-01       5    8    1        -0.4744618770E+01      0.6039240923E+01
          0                 2           2             5    8     1       0.7520041759E-02       5    8    1         0.4277270942E+00      0.5589018189E+00
          0                 3           2             4    7     1       0.1065914408E-02       4    7    1         0.5904942155E-01      0.1252222853E+00
          0                 4           1             4    8     1       0.8513134003E-04       4    8    1         0.4672898001E-02      0.7537009008E-02

    ------------------------------------------------
       NWT REQUIRED            4 OUTER ITERATIONS 
       AND A TOTAL OF          7 INNER ITERATIONS.
    ------------------------------------------------

 NO OUTPUT CONTROL FOR STRESS PERIOD   35   TIME STEP   16
 
 SOLVING FOR HEAD 
                                                   Max.-Head-Change                         Max.-Flux-Residual
  Residual-Control   Outer-Iter.   Inner-Iter.     Column Row Layer    Maximum-Head-Change  Column Row Layer    Maximum-Flux-Residual          L2-NORM 
          0                 1           2             5    8     1      -0.7766605600E-01       5    8    1        -0.4370835482E+01      0.5616578673E+01
          0                 2           2             5    8     1       0.6873422130E-02       5    8    1         0.3909528334E+00      0.5227356661E+00
          0                 3           2             4    7     1       0.1063797549E-02       4    7    1         0.5895856449E-01      0.1244278585E+00
          0                 4           1             4    8     1       0.8371782521E-04       4    8    1         0.4598605678E-02      0.7461556029E-02

    ------------------------------------------------
       NWT REQUIRED            4 OUTER ITERATIONS 
       AND A TOTAL OF          7 INNER ITERATIONS.
    ------------------------------------------------

 NO OUTPUT CONTROL FOR STRESS PERIOD   35   TIME STEP   17
 
 SOLVING FOR HEAD 
                                                   Max.-Head-Change                         Max.-Flux-Residual
  Residual-Control   Outer-Iter.   Inner-Iter.     Column Row Layer    Maximum-Head-Change  Column Row Layer    Maximum-Flux-Residual          L2-NORM 
          0                 1           2             4    8     1       0.9273015209E-01       4    8    1         0.5074906675E+01      0.7111531624E+01
          0                 2           2             4    8     1       0.3639187280E-01       4    8    1         0.1977001829E+01      0.2035307897E+01
          0                 3           2             4    8     1       0.1548357231E-01       4    8    1         0.8407382896E+00      0.8483874867E+00
          0                 4           2             4    8     1       0.6224984661E-02       4    8    1         0.3385418706E+00      0.3385897747E+00
          0                 5           2             4    8     1       0.2503807989E-02       4    8    1         0.1361414609E+00      0.1361440170E+00
          0                 6           2             4    8     1       0.1008037218E-02       4    8    1         0.5481079045E-01      0.5481192427E-01
          0                 7           2             4    8     1       0.4066361889E-03       4    8    1         0.2210909955E-01      0.2211048400E-01
          0                 8           2             4    8     1       0.1646992243E-03       4    8    1         0.8953843280E-02      0.8955894827E-02
          0                 9           1             4    8     1       0.6725887721E-04       4    8    1         0.3655710090E-02      0.3658938968E-02

    ------------------------------------------------
       NWT REQUIRED            9 OUTER ITERATIONS 
       AND A TOTAL OF         17 INNER ITERATIONS.
    ------------------------------------------------

 NO OUTPUT CONTROL FOR STRESS PERIOD   35   TIME STEP   18
 
 SOLVING FOR HEAD 
                                                   Max.-Head-Change                         Max.-Flux-Residual
  Residual-Control   Outer-Iter.   Inner-Iter.     Column Row Layer    Maximum-Head-Change  Column Row Layer    Maximum-Flux-Residual          L2-NORM 
          0                 1           2             4    8     1       0.2059675202E+00       4    8    1         0.1122278631E+02      0.1253642008E+02
          0                 2           2             4    8     1       0.8176174516E-01       4    8    1         0.4447045272E+01      0.4654950937E+01
          0                 3           2             4    8     1       0.3369350360E-01       4    8    1         0.1831704006E+01      0.1917602882E+01
          0                 4           2             4    8     1       0.1353534854E-01       4    8    1         0.7363959360E+00      0.7689617236E+00
          0                 5           2             4    8     1       0.5438614784E-02       4    8    1         0.2958594628E+00      0.3085321593E+00
          0                 6           2             4    8     1       0.2186283507E-02       4    8    1         0.1189339716E+00      0.1238838164E+00
          0                 7           2             4    8     1       0.8797084085E-03       4    8    1         0.4785496145E-01      0.4979961957E-01
          0                 8           2             4    8     1       0.3546717083E-03       4    8    1         0.1929268868E-01      0.2006627287E-01
          0                 9           2             4    8     1       0.1435744207E-03       4    8    1         0.7809019120E-02      0.8125031039E-02
          0                10           1             4    8     1       0.5860308399E-04       4    8    1         0.3186721426E-02      0.3323312679E-02

    ------------------------------------------------
       NWT REQUIRED           10 OUTER ITERATIONS 
       AND A TOTAL OF         19 INNER ITERATIONS.
    ------------------------------------------------

 NO OUTPUT CONTROL FOR STRESS PERIOD   35   TIME STEP   19
 
 SOLVING FOR HEAD 
                                                   Max.-Head-Change                         Max.-Flux-Residual
  Residual-Control   Outer-Iter.   Inner-Iter.     Column Row Layer    Maximum-Head-Change  Column Row Layer    Maximum-Flux-Residual          L2-NORM 
          0                 1           2             5    7     1       0.2004205681E+00       5    7    1         0.1105947128E+02      0.1563788236E+02
          0                 2           2             5    7     1       0.7815860162E-01       5    7    1         0.4319188285E+01      0.5965090859E+01
          0                 3           2             5    7     1       0.3167417074E-01       5    7    1         0.1746582616E+01      0.2433989469E+01
          0                 4           2             4    8     1       0.1255536718E-01       5    7    1         0.6899219805E+00      0.9699566024E+00
          0                 5           2             4    8     1       0.5056918863E-02       4    8    1         0.2745706014E+00      0.3866001630E+00
          0                 6           2             4    8     1       0.2037813780E-02       4    8    1         0.1106464906E+00      0.1542274387E+00
          0                 7           2             4    8     1       0.8220653843E-03       4    8    1         0.4463452561E-01      0.6160648752E-01
          0                 8           2             4    8     1       0.3323589568E-03       4    8    1         0.1804479230E-01      0.2467111172E-01
          0                 9           2             4    8     1       0.1349833149E-03       4    8    1         0.7327890767E-02      0.9929636277E-02
          0                10           1             4    8     1       0.5532977547E-04       4    8    1         0.3003045545E-02      0.4037436541E-02

    ------------------------------------------------
       NWT REQUIRED           10 OUTER ITERATIONS 
       AND A TOTAL OF         19 INNER ITERATIONS.
    ------------------------------------------------

 NO OUTPUT CONTROL FOR STRESS PERIOD   35   TIME STEP   20
 
 SOLVING FOR HEAD 
                                                   Max.-Head-Change                         Max.-Flux-Residual
  Residual-Control   Outer-Iter.   Inner-Iter.     Column Row Layer    Maximum-Head-Change  Column Row Layer    Maximum-Flux-Residual          L2-NORM 
          0                 1           2             5    7     1       0.1796091535E+00       5    7    1         0.9884658562E+01      0.1423642380E+02
          0                 2           2             5    7     1       0.6976427355E-01       5    7    1         0.3860233312E+01      0.5406451980E+01
          0                 3           2             4    8     1       0.2870530527E-01       5    7    1         0.1563202453E+01      0.2209366935E+01
          0                 4           2             4    8     1       0.1155855925E-01       4    8    1         0.6276825656E+00      0.8802753845E+00
          0                 5           2             4    8     1       0.4655492456E-02       4    8    1         0.2527841974E+00      0.3508303415E+00
          0                 6           2             4    8     1       0.1876210060E-02       4    8    1         0.1018758460E+00      0.1399648369E+00
          0                 7           2             4    8     1       0.7570528745E-03       4    8    1         0.4110604573E-01      0.5592259788E-01
          0                 8           2             4    8     1       0.3062433567E-03       4    8    1         0.1662734066E-01      0.2240879936E-01
          0                 9           2             4    8     1       0.1245236572E-03       4    8    1         0.6760139909E-02      0.9031592325E-02
          0                10           1             4    8     1       0.5116683523E-04       4    8    1         0.2777046594E-02      0.3683099147E-02

    ------------------------------------------------
       NWT REQUIRED           10 OUTER ITERATIONS 
       AND A TOTAL OF         19 INNER ITERATIONS.
    ------------------------------------------------

 NO OUTPUT CONTROL FOR STRESS PERIOD   35   TIME STEP   21
 
 SOLVING FOR HEAD 
                                                   Max.-Head-Change                         Max.-Flux-Residual
  Residual-Control   Outer-Iter.   Inner-Iter.     Column Row Layer    Maximum-Head-Change  Column Row Layer    Maximum-Flux-Residual          L2-NORM 
          0                 1           2             5    7     1       0.1610968657E+00       5    7    1         0.8847005931E+01      0.1305266631E+02
          0                 2           2             4    8     1       0.6380310984E-01       4    8    1         0.3468884585E+01      0.4925489397E+01
          0                 3           2             4    8     1       0.2652710831E-01       4    8    1         0.1438977350E+01      0.2015850434E+01
          0                 4           2             4    8     1       0.1068119910E-01       4    8    1         0.5800795550E+00      0.8032959552E+00
          0                 5           2             4    8     1       0.4302165628E-02       4    8    1         0.2336098662E+00      0.3202394519E+00
          0                 6           2             4    8     1       0.1733974011E-02       4    8    1         0.9415701993E-01      0.1278119543E+00
          0                 7           2             4    8     1       0.6998384882E-03       4    8    1         0.3800104316E-01      0.5109671505E-01
          0                 8           2             4    8     1       0.2832645454E-03       4    8    1         0.1538023173E-01      0.2049477223E-01
          0                 9           2             4    8     1       0.1153252266E-03       4    8    1         0.6260878240E-02      0.8274753056E-02
          0                10           1             4    8     1       0.4751004532E-04       4    8    1         0.2578534268E-02      0.3385837001E-02

    ------------------------------------------------
       NWT REQUIRED           10 OUTER ITERATIONS 
       AND A TOTAL OF         19 INNER ITERATIONS.
    ------------------------------------------------

 NO OUTPUT CONTROL FOR STRESS PERIOD   35   TIME STEP   22
 
 SOLVING FOR HEAD 
                                                   Max.-Head-Change                         Max.-Flux-Residual
  Residual-Control   Outer-Iter.   Inner-Iter.     Column Row Layer    Maximum-Head-Change  Column Row Layer    Maximum-Flux-Residual          L2-NORM 
          0                 1           2             4    8     1       0.1485801027E+00       4    8    1         0.8026146179E+01      0.1206637820E+02
          0                 2           2             4    8     1       0.5894436836E-01       4    8    1         0.3206692033E+01      0.4494703587E+01
          0                 3           2             4    8     1       0.2456651028E-01       4    8    1         0.1332478995E+01      0.1840256975E+01
          0                 4           2             4    8     1       0.9891529092E-02       4    8    1         0.5372320875E+00      0.7327420299E+00
          0                 5           2             4    8     1       0.3984170594E-02       4    8    1         0.2163525604E+00      0.2919499929E+00
          0                 6           2             4    8     1       0.1605968745E-02       4    8    1         0.8721036149E-01      0.1164774332E+00
          0                 7           2             4    8     1       0.6483536188E-03       4    8    1         0.3520696131E-01      0.4655946476E-01
          0                 8           2             4    8     1       0.2625910484E-03       4    8    1         0.1425823695E-01      0.1868143195E-01
          0                 9           1             4    8     1       0.1070529516E-03       4    8    1         0.5811887338E-02      0.7552408868E-02
          0                10           1             4    8     1       0.4422309275E-04       4    8    1         0.2400101035E-02      0.3100123463E-02

    ------------------------------------------------
       NWT REQUIRED           10 OUTER ITERATIONS 
       AND A TOTAL OF         18 INNER ITERATIONS.
    ------------------------------------------------

 NO OUTPUT CONTROL FOR STRESS PERIOD   35   TIME STEP   23
 
 SOLVING FOR HEAD 
                                                   Max.-Head-Change                         Max.-Flux-Residual
  Residual-Control   Outer-Iter.   Inner-Iter.     Column Row Layer    Maximum-Head-Change  Column Row Layer    Maximum-Flux-Residual          L2-NORM 
          0                 1           2             4    8     1       0.1377058674E+00       4    8    1         0.7422960548E+01      0.1291806359E+02
          0                 2           2             4    8     1       0.5506517208E-01       4    8    1         0.2990013403E+01      0.4911570097E+01
          0                 3           2             4    8     1       0.2307197547E-01       4    8    1         0.1248173223E+01      0.2041299362E+01
          0                 4           2             4    8     1       0.9319509346E-02       4    8    1         0.5048889114E+00      0.8216831436E+00
          0                 5           2             4    8     1       0.3765947644E-02       4    8    1         0.2039844919E+00      0.3308161296E+00
          0                 6           2             4    8     1       0.1523048286E-02       4    8    1         0.8249753035E-01      0.1333359547E+00
          0                 7           2             4    8     1       0.6170088144E-03       4    8    1         0.3341963853E-01      0.5383911380E-01
          0                 8           2             4    8     1       0.2508316718E-03       4    8    1         0.1358501032E-01      0.2182165637E-01
          0                 9           1             4    8     1       0.1026959183E-03       4    8    1         0.5561124166E-02      0.8913062905E-02
          0                10           1             4    8     1       0.4264632057E-04       4    8    1         0.2308629663E-02      0.3697683035E-02

    ------------------------------------------------
       NWT REQUIRED           10 OUTER ITERATIONS 
       AND A TOTAL OF         18 INNER ITERATIONS.
    ------------------------------------------------

 NO OUTPUT CONTROL FOR STRESS PERIOD   35   TIME STEP   24
 
 SOLVING FOR HEAD 
                                                   Max.-Head-Change                         Max.-Flux-Residual
  Residual-Control   Outer-Iter.   Inner-Iter.     Column Row Layer    Maximum-Head-Change  Column Row Layer    Maximum-Flux-Residual          L2-NORM 
          0                 1           2             5    6     1       0.2072892321E+00       5    6    1         0.1130596746E+02      0.1545495783E+02
          0                 2           2             5    6     1       0.8187315520E-01       5    6    1         0.4481711579E+01      0.5929257120E+01
          0                 3           2             5    6     1       0.3350085703E-01       5    6    1         0.1830600500E+01      0.2443806898E+01
          0                 4           2             5    6     1       0.1337918692E-01       5    6    1         0.7314109469E+00      0.9819848062E+00
          0                 5           2             5    6     1       0.5345813027E-02       5    6    1         0.2921767962E+00      0.3946286019E+00
          0                 6           2             5    6     1       0.2137688616E-02       5    6    1         0.1168183095E+00      0.1587545388E+00
          0                 7           2             5    6     1       0.8560663122E-03       5    6    1         0.4677325722E-01      0.6396803879E-01
          0                 8           2             5    6     1       0.3437923211E-03       5    6    1         0.1878010910E-01      0.2586069109E-01
          0                 9           2             5    6     1       0.1388446002E-03       5    6    1         0.7582538768E-02      0.1052538581E-01
          0                10           1             5    6     1       0.5670960896E-04       5    6    1         0.3095776667E-02      0.4342689144E-02

    ------------------------------------------------
       NWT REQUIRED           10 OUTER ITERATIONS 
       AND A TOTAL OF         19 INNER ITERATIONS.
    ------------------------------------------------

 NO OUTPUT CONTROL FOR STRESS PERIOD   35   TIME STEP   25
 
 SOLVING FOR HEAD 
                                                   Max.-Head-Change                         Max.-Flux-Residual
  Residual-Control   Outer-Iter.   Inner-Iter.     Column Row Layer    Maximum-Head-Change  Column Row Layer    Maximum-Flux-Residual          L2-NORM 
          0                 1           2             4    7     1       0.2468294709E+00       4    7    1         0.1334435199E+02      0.1835758898E+02
          0                 2           2             4    7     1       0.9899644745E-01       4    7    1         0.5356516912E+01      0.7230516647E+01
          0                 3           2             4    7     1       0.4092323923E-01       4    7    1         0.2210032301E+01      0.2998498527E+01
          0                 4           2             4    7     1       0.1658471431E-01       4    7    1         0.8959011328E+00      0.1216652577E+01
          0                 5           2             4    7     1       0.6724716270E-02       4    7    1         0.3631621066E+00      0.4939235243E+00
          0                 6           2             4    7     1       0.2728940027E-02       4    7    1         0.1473349933E+00      0.2007286920E+00
          0                 7           2             4    7     1       0.1108903405E-02       4    7    1         0.5985280024E-01      0.8170607687E-01
          0                 8           2             4    7     1       0.4516848343E-03       4    7    1         0.2437211826E-01      0.3335417117E-01
          0                 9           2             4    7     1       0.1848243729E-03       4    7    1         0.9969072191E-02      0.1369095929E-01
          0                10           1             4    7     1       0.7630489543E-04       4    7    1         0.4113609293E-02      0.5680890278E-02

    ------------------------------------------------
       NWT REQUIRED           10 OUTER ITERATIONS 
       AND A TOTAL OF         19 INNER ITERATIONS.
    ------------------------------------------------

 NO OUTPUT CONTROL FOR STRESS PERIOD   35   TIME STEP   26
 
 SOLVING FOR HEAD 
                                                   Max.-Head-Change                         Max.-Flux-Residual
  Residual-Control   Outer-Iter.   Inner-Iter.     Column Row Layer    Maximum-Head-Change  Column Row Layer    Maximum-Flux-Residual          L2-NORM 
          0                 1           2             4    7     1       0.2372089944E+00       4    7    1         0.1285647253E+02      0.1728589527E+02
          0                 2           2             4    7     1       0.9444016252E-01       4    7    1         0.5142925006E+01      0.6375331688E+01
          0                 3           2             4    7     1       0.3871604318E-01       4    7    1         0.2106800969E+01      0.2596143243E+01
          0                 4           2             4    7     1       0.1553209050E-01       4    7    1         0.8460050976E+00      0.1035613692E+01
          0                 5           2             4    7     1       0.6232160330E-02       4    7    1         0.3394355821E+00      0.4131567269E+00
          0                 6           2             4    7     1       0.2501999361E-02       4    7    1         0.1362714070E+00      0.1649659635E+00
          0                 7           2             4    7     1       0.1005643297E-02       4    7    1         0.5477009179E-01      0.6596409541E-01
          0                 8           2             4    7     1       0.4051877247E-03       4    7    1         0.2206564446E-01      0.2645391141E-01
          0                 9           1             4    7     1       0.1640747081E-03       4    7    1         0.8933431784E-02      0.1067203389E-01
          0                10           1             4    7     1       0.6711950083E-04       4    7    1         0.3653032065E-02      0.4357915508E-02

    ------------------------------------------------
       NWT REQUIRED           10 OUTER ITERATIONS 
       AND A TOTAL OF         18 INNER ITERATIONS.
    ------------------------------------------------

 NO OUTPUT CONTROL FOR STRESS PERIOD   35   TIME STEP   27
 
 SOLVING FOR HEAD 
                                                   Max.-Head-Change                         Max.-Flux-Residual
  Residual-Control   Outer-Iter.   Inner-Iter.     Column Row Layer    Maximum-Head-Change  Column Row Layer    Maximum-Flux-Residual          L2-NORM 
          0                 1           2             4    7     1       0.2163365221E+00       4    7    1         0.1183612777E+02      0.1579813376E+02
          0                 2           2             4    7     1       0.8588140664E-01       4    7    1         0.4675511169E+01      0.5770475179E+01
          0                 3           2             4    7     1       0.3520942434E-01       4    7    1         0.1919438300E+01      0.2350613566E+01
          0                 4           2             4    7     1       0.1409242672E-01       4    7    1         0.7689991607E+00      0.9356670758E+00
          0                 5           2             4    7     1       0.5642162871E-02       4    7    1         0.3078408806E+00      0.3724877128E+00
          0                 6           2             4    7     1       0.2260397842E-02       4    7    1         0.1233291735E+00      0.1484379486E+00
          0                 7           2             4    7     1       0.9067922331E-03       4    7    1         0.4947284160E-01      0.5925069324E-01
          0                 8           2             4    7     1       0.3647889991E-03       4    7    1         0.1990010838E-01      0.2372962227E-01
          0                 9           1             4    7     1       0.1475945352E-03       4    7    1         0.8049849335E-02      0.9568452979E-02
          0                10           1             4    7     1       0.6041840133E-04       4    7    1         0.3293746530E-02      0.3912487279E-02

    ------------------------------------------------
       NWT REQUIRED           10 OUTER ITERATIONS 
       AND A TOTAL OF         18 INNER ITERATIONS.
    ------------------------------------------------

 NO OUTPUT CONTROL FOR STRESS PERIOD   35   TIME STEP   28
 
 SOLVING FOR HEAD 
                                                   Max.-Head-Change                         Max.-Flux-Residual
  Residual-Control   Outer-Iter.   Inner-Iter.     Column Row Layer    Maximum-Head-Change  Column Row Layer    Maximum-Flux-Residual          L2-NORM 
          0                 1           2             4    7     1       0.1969960427E+00       4    7    1         0.1077970391E+02      0.1435836709E+02
          0                 2           2             4    7     1       0.7796140857E-01       4    7    1         0.4253266291E+01      0.5222581237E+01
          0                 3           2             4    7     1       0.3202566290E-01       4    7    1         0.1745650489E+01      0.2127472975E+01
          0                 4           2             4    7     1       0.1281774101E-01       4    7    1         0.6994977917E+00      0.8469065220E+00
          0                 5           2             4    7     1       0.5131861289E-02       4    7    1         0.2800116842E+00      0.3371881929E+00
          0                 6           2             4    7     1       0.2056143547E-02       4    7    1         0.1121903537E+00      0.1344030163E+00
          0                 7           2             4    7     1       0.8250663457E-03       4    7    1         0.4501588385E-01      0.5367155349E-01
          0                 8           2             4    7     1       0.3321141417E-03       4    7    1         0.1811811038E-01      0.2151335304E-01
          0                 9           1             4    7     1       0.1345513451E-03       4    7    1         0.7338464552E-02      0.8689581198E-02
          0                10           1             4    7     1       0.5522868497E-04       4    7    1         0.3010661329E-02      0.3565348246E-02

    ------------------------------------------------
       NWT REQUIRED           10 OUTER ITERATIONS 
       AND A TOTAL OF         18 INNER ITERATIONS.
    ------------------------------------------------

 NO OUTPUT CONTROL FOR STRESS PERIOD   35   TIME STEP   29
 
 SOLVING FOR HEAD 
                                                   Max.-Head-Change                         Max.-Flux-Residual
  Residual-Control   Outer-Iter.   Inner-Iter.     Column Row Layer    Maximum-Head-Change  Column Row Layer    Maximum-Flux-Residual          L2-NORM 
          0                 1           2             4    7     1       0.1795661676E+00       4    7    1         0.9807053356E+01      0.1310784154E+02
          0                 2           2             4    7     1       0.7098516875E-01       4    7    1         0.3874981934E+01      0.4738790595E+01
          0                 3           2             4    7     1       0.2923008249E-01       4    7    1         0.1593038593E+01      0.1933305597E+01
          0                 4           2             4    7     1       0.1169861277E-01       4    7    1         0.6384727656E+00      0.7696323124E+00
          0                 5           2             4    7     1       0.4683901326E-02       4    7    1         0.2555801139E+00      0.3064551831E+00
          0                 6           2             4    7     1       0.1876875296E-02       4    7    1         0.1024132528E+00      0.1221837402E+00
          0                 7           2             4    7     1       0.7533586392E-03       4    7    1         0.4110490766E-01      0.4881477190E-01
          0                 8           2             4    7     1       0.3034579033E-03       4    7    1         0.1655512159E-01      0.1958467575E-01
          0                 9           1             4    7     1       0.1231219990E-03       4    7    1         0.6715028764E-02      0.7925343035E-02
          0                10           1             4    7     1       0.5068904147E-04       4    7    1         0.2762998914E-02      0.3264259632E-02

    ------------------------------------------------
       NWT REQUIRED           10 OUTER ITERATIONS 
       AND A TOTAL OF         18 INNER ITERATIONS.
    ------------------------------------------------

 NO OUTPUT CONTROL FOR STRESS PERIOD   35   TIME STEP   30



 STREAM LISTING     PERIOD     35   STEP       30

 LAYER ROW COL. STREAM  RCH.  FLOW INTO     FLOW TO   FLOW OUT OF   OVRLND.     DIRECT     STREAM       STREAM     STREAM     STREAM   STREAMBED  STREAMBED
                SEG.NO.  NO.  STRM. RCH.    AQUIFER    STRM. RCH.    RUNOFF     PRECIP       ET          HEAD       DEPTH      WIDTH   CONDCTNC.   GRADIENT

   1    1    1     1     1    2.6249E+01  2.5084E-01   2.5998E+01  0.000E+00  0.000E+00  0.000E+00  1.09424E+03  1.197E+00  1.328E+01  5.977E-02  1.399E+00
   1    2    2     1     2    2.5998E+01  3.8795E-01   2.5610E+01  0.000E+00  0.000E+00  0.000E+00  1.08925E+03  1.192E+00  1.322E+01  9.254E-02  1.397E+00
   1    3    3     1     3    2.5610E+01  3.3035E-01   2.5280E+01  0.000E+00  0.000E+00  0.000E+00  1.08361E+03  1.187E+00  1.315E+01  7.890E-02  1.396E+00
   1    3    4     1     4    2.5280E+01  3.0378E-01   2.4976E+01  0.000E+00  0.000E+00  0.000E+00  1.07859E+03  1.182E+00  1.309E+01  7.264E-02  1.394E+00
   1    4    5     2     1    2.2976E+01  3.2316E-01   2.2653E+01  0.000E+00  0.000E+00  0.000E+00  1.07308E+03  1.143E+00  1.200E+01  7.800E-02  1.381E+00
   1    5    6     2     2    2.2653E+01  2.4807E-01   2.2405E+01  0.000E+00  0.000E+00  0.000E+00  1.06764E+03  1.134E+00  1.200E+01  6.000E-02  1.378E+00
   1    6    6     2     3    2.2405E+01  2.4762E-01   2.2157E+01  0.000E+00  0.000E+00  0.000E+00  1.06292E+03  1.127E+00  1.200E+01  6.000E-02  1.376E+00
   1    7    6     2     4    2.2157E+01  2.4717E-01   2.1910E+01  0.000E+00  0.000E+00  0.000E+00  1.05819E+03  1.119E+00  1.200E+01  6.000E-02  1.373E+00
   1    8    6     2     5    2.1910E+01  2.4671E-01   2.1664E+01  0.000E+00  0.000E+00  0.000E+00  1.05347E+03  1.112E+00  1.200E+01  6.000E-02  1.371E+00
   1    3    5     3     1    2.0000E+00  2.8252E-01   1.7175E+00  0.000E+00  0.000E+00  0.000E+00  1.07555E+03  1.909E+00  9.636E+00  7.227E-02  1.955E+00
   1    3    6     3     2    1.7175E+00  2.4905E-01   1.4684E+00  0.000E+00  0.000E+00  0.000E+00  1.07264E+03  1.727E+00  8.909E+00  6.682E-02  1.864E+00
   1    3    7     3     3    1.4684E+00  1.9718E-01   1.2712E+00  0.000E+00  0.000E+00  0.000E+00  1.06987E+03  1.555E+00  8.218E+00  5.547E-02  1.777E+00
   1    4    8     3     4    1.2712E+00  2.2567E-01   1.0456E+00  0.000E+00  0.000E+00  0.000E+00  1.06682E+03  1.364E+00  7.455E+00  6.709E-02  1.682E+00
   1    5    8     3     5    1.0456E+00  1.5790E-01   8.8768E-01  0.000E+00  0.000E+00  0.000E+00  1.06362E+03  1.164E+00  6.655E+00  4.991E-02  1.582E+00
   1    6    8     3     6    8.8768E-01  5.5980E-02   8.3170E-01  0.000E+00  0.000E+00  0.000E+00  1.06158E+03  1.036E+00  6.145E+00  1.844E-02  1.518E+00
   1    5   10     4     1    1.0000E+01  9.0919E-02   9.9091E+00  0.000E+00  0.000E+00  0.000E+00  1.07836E+03  6.368E-01  1.000E+01  2.500E-02  1.212E+00
   1    5    9     4     2    9.9091E+00  1.8158E-01   9.7275E+00  0.000E+00  0.000E+00  0.000E+00  1.07154E+03  6.315E-01  1.000E+01  5.000E-02  1.211E+00
   1    6    8     4     3    9.7275E+00  1.2689E-01   9.6006E+00  0.000E+00  0.000E+00  0.000E+00  1.06381E+03  6.256E-01  1.000E+01  3.500E-02  1.209E+00
   1    6    8     5     1    1.0432E+01  2.2686E-01   1.0205E+01  0.000E+00  0.000E+00  0.000E+00  1.05868E+03  6.790E-01  1.542E+01  6.166E-02  1.226E+00
   1    7    7     5     2    1.0205E+01  2.7894E-01   9.9265E+00  0.000E+00  0.000E+00  0.000E+00  1.05417E+03  6.732E-01  1.519E+01  7.594E-02  1.224E+00
   1    8    7     5     3    9.9265E+00  1.9221E-01   9.7343E+00  0.000E+00  0.000E+00  0.000E+00  1.04992E+03  6.676E-01  1.497E+01  5.241E-02  1.223E+00
   1    8    6     5     4    9.7343E+00  1.3577E-01   9.5985E+00  0.000E+00  0.000E+00  0.000E+00  1.04691E+03  6.637E-01  1.482E+01  3.706E-02  1.221E+00
   1    9    6     6     1    3.0688E+01  2.6264E-01   3.0426E+01  0.000E+00  0.000E+00  0.000E+00  1.04410E+03  1.377E+00  1.200E+01  6.000E-02  1.459E+00
   1   10    7     6     2    3.0426E+01  2.6222E-01   3.0163E+01  0.000E+00  0.000E+00  0.000E+00  1.03955E+03  1.370E+00  1.200E+01  6.000E-02  1.457E+00
   1   11    7     6     3    3.0163E+01  2.6179E-01   2.9902E+01  0.000E+00  0.000E+00  0.000E+00  1.03500E+03  1.363E+00  1.200E+01  6.000E-02  1.454E+00
   1   12    7     6     4    2.9902E+01  2.6136E-01   2.9640E+01  0.000E+00  0.000E+00  0.000E+00  1.03045E+03  1.356E+00  1.200E+01  6.000E-02  1.452E+00
   1   13    7     6     5    2.9640E+01  7.0045E-03   2.9633E+01  0.000E+00  0.000E+00  0.000E+00  1.02726E+03  1.352E+00  1.200E+01  2.400E-02  9.728E-02
   1   14    9     7     1    1.5000E+02  1.3466E+00   1.4865E+02  0.000E+00  0.000E+00  0.000E+00  1.03987E+03  2.288E+00  5.529E+01  5.593E-01  8.025E-01
   1   13    8     7     2    1.4865E+02  1.8693E+00   1.4678E+02  0.000E+00  0.000E+00  0.000E+00  1.03478E+03  2.279E+00  5.526E+01  6.148E-01  1.014E+00
   1   13    7     7     3    1.4678E+02  1.5189E+00   1.4527E+02  0.000E+00  0.000E+00  0.000E+00  1.02969E+03  2.270E+00  5.522E+01  5.584E-01  9.066E-01
   1   13    6     8     1    1.7490E+02  9.8515E-01   1.7391E+02  0.000E+00  0.000E+00  0.000E+00  1.02486E+03  2.981E+00  4.322E+01  4.404E-01  7.456E-01
   1   13    5     8     2    1.7391E+02  2.2237E-01   1.7369E+02  0.000E+00  0.000E+00  0.000E+00  1.01860E+03  2.977E+00  4.316E+01  4.399E-01  1.685E-01
   1   13    4     8     3    1.7369E+02 -2.3033E+00   1.7599E+02  0.000E+00  0.000E+00  0.000E+00  1.01236E+03  2.983E+00  4.326E+01  4.408E+00 -1.742E-01
   1   13    3     8     4    1.7599E+02 -3.5784E+00   1.7957E+02  0.000E+00  0.000E+00  0.000E+00  1.00613E+03  3.002E+00  4.353E+01  4.436E+00 -2.689E-01
   1   13    2     8     5    1.7957E+02 -2.5468E+00   1.8212E+02  0.000E+00  0.000E+00  0.000E+00  9.99896E+02  3.021E+00  4.381E+01  4.465E+00 -1.901E-01
   1   13    1     8     6    1.8212E+02 -1.9634E+00   1.8408E+02  0.000E+00  0.000E+00  0.000E+00  9.94911E+02  3.036E+00  4.402E+01  2.691E+00 -2.432E-01
   1    8    6     9     1    5.7377E-01  0.0000E+00   5.7377E-01  0.000E+00  0.000E+00  0.000E+00  1.07916E+03  4.069E-01  4.000E+00  0.000E+00  1.136E+00
   1    8    5     9     2    5.7377E-01  0.0000E+00   5.7377E-01  0.000E+00  0.000E+00  0.000E+00  1.07866E+03  4.069E-01  4.000E+00  0.000E+00  1.136E+00





UNSATURATED ZONE PACKAGE VOLUMETRIC BUDGET FOR  TIME STEP    30 STRESS PERIOD   35
  ------------------------------------------------------------------------------



     CUMULATIVE VOLUMES      L**3       RATES FOR THIS TIME STEP      L**3/T
     ------------------                 ------------------------

           IN:                                      IN:
           ---                                      ---
        INFILTRATION =  1836509188.5598          INFILTRATION =           4.9813

          OUT:                                     OUT:
          ----                                     ----
              UZF ET =  1489506256.2534                UZF ET =           4.2281
        UZF RECHARGE =    68248275.2895          UZF RECHARGE =          33.9180

            IN - OUT =   278754657.0169              IN - OUT =         -33.1648

          STORAGE:                                 STORAGE:
          --------                                 --------
      STORAGE CHANGE =   278755435.5585        STORAGE CHANGE =         -33.1648

 PERCENT DISCREPANCY IS DIFFERENCE BETWEEN IN-OUT MINUS CHANGE IN STORAGE
 DIVIDED BY THE AVERAGE OF IN AND OUT TIMES 100

 PERCENT DISCREPANCY =          -0.00     PERCENT DISCREPANCY =           0.00






1
  VOLUMETRIC BUDGET FOR AGRICULTURAL FIELDS AT  END OF TIME STEP   30, STRESS PERIOD  35
  ------------------------------------------------------------------------------

     CUMULATIVE VOLUMES      L**3       RATES FOR THIS TIME STEP      L**3/T
     ------------------                 ------------------------

           IN:                                      IN:
           ---                                      ---
               AG WELLS  =   514772736.0000                 AG WELLS  =       2.2446E-03
      DIVERSION SEGMENTS =   927926528.0000        DIVERSION SEGMENTS =           0.5738
           GW IRRIGATION =           0.0000             GW IRRIGATION =           0.0000
           SW IRRIGATION =           0.0000             SW IRRIGATION =           0.0000
        SYSTEM LOSSES GW =           0.0000          SYSTEM LOSSES GW =           0.0000
        SYSTEM LOSSES SW =           0.0000          SYSTEM LOSSES SW =           0.0000

                TOTAL IN =  1442699264.0000                  TOTAL IN =           0.5760

          OUT:                                     OUT:
          ----                                     ----
               AG WELLS  =           0.0000                 AG WELLS  =           0.0000
      DIVERSION SEGMENTS =           0.0000        DIVERSION SEGMENTS =           0.0000
           GW IRRIGATION =   514772736.0000             GW IRRIGATION =       2.2446E-03
           SW IRRIGATION =   927944192.0000             SW IRRIGATION =           0.5738
        SYSTEM LOSSES GW =           0.0000          SYSTEM LOSSES GW =           0.0000
        SYSTEM LOSSES SW =           0.0000          SYSTEM LOSSES SW =           0.0000

               TOTAL OUT =  1442716928.0000                 TOTAL OUT =           0.5760

                IN - OUT =      -17664.0000                  IN - OUT =      -1.1444E-05

     PERCENT DISCREPANCY =          -0.00         PERCENT DISCREPANCY =          -0.00



1
  VOLUMETRIC BUDGET FOR ENTIRE MODEL AT END OF TIME STEP   30, STRESS PERIOD  35
  ------------------------------------------------------------------------------

     CUMULATIVE VOLUMES      L**3       RATES FOR THIS TIME STEP      L**3/T
     ------------------                 ------------------------

           IN:                                      IN:
           ---                                      ---
             STORAGE     =   833378048.0000               STORAGE     =           6.3995
       CONSTANT HEAD     =           0.0000         CONSTANT HEAD     =           0.0000
     HEAD DEP BOUNDS     =    25591926.0000       HEAD DEP BOUNDS     =           0.2865
      STREAM LEAKAGE     =  1077018240.0000        STREAM LEAKAGE     =          11.9843
        UZF RECHARGE     =    68248264.0000          UZF RECHARGE     =          33.9180
               GW ET     =           0.0000                 GW ET     =           0.0000
     SURFACE LEAKAGE     =           0.0000       SURFACE LEAKAGE     =           0.0000
           AG WELLS      =           0.0000             AG WELLS      =           0.0000

                TOTAL IN =  2004236544.0000                  TOTAL IN =          52.5883

          OUT:                                     OUT:
          ----                                     ----
             STORAGE     =   502960768.0000               STORAGE     =          41.9020
       CONSTANT HEAD     =           0.0000         CONSTANT HEAD     =           0.0000
     HEAD DEP BOUNDS     =    26024042.0000       HEAD DEP BOUNDS     =           0.2903
      STREAM LEAKAGE     =   957872640.0000        STREAM LEAKAGE     =          10.3919
        UZF RECHARGE     =           0.0000          UZF RECHARGE     =           0.0000
               GW ET     =     2603293.0000                 GW ET     =           0.0000
     SURFACE LEAKAGE     =           0.0000       SURFACE LEAKAGE     =           0.0000
           AG WELLS      =   514772736.0000             AG WELLS      =       2.2446E-03

               TOTAL OUT =  2004233472.0000                 TOTAL OUT =          52.5865

                IN - OUT =        3072.0000                  IN - OUT =       1.7929E-03

     PERCENT DISCREPANCY =           0.00         PERCENT DISCREPANCY =           0.00






         TIME SUMMARY AT END OF TIME STEP   30 IN STRESS PERIOD   35
                    SECONDS     MINUTES      HOURS       DAYS        YEARS
                    -----------------------------------------------------------
   TIME STEP LENGTH  87667.      1461.1      24.352      1.0147     2.77799E-03
 STRESS PERIOD TIME 2.63000E+06  43833.      730.56      30.440     8.33397E-02
         TOTAL TIME 8.95061E+07 1.49177E+06  24863.      1036.0      2.8363    
1
1
                            STRESS PERIOD NO.   36, LENGTH =   2630000.    
                            -----------------------------------------------

                              NUMBER OF TIME STEPS =    30

                               MULTIPLIER FOR DELT =     1.000

                            INITIAL TIME STEP SIZE =   87666.66    

 REUSING NON-PARAMETER GHB CELLS FROM LAST STRESS PERIOD

      2 GHB CELLS

 REUSING STREAM SEGMENT DATA FROM LAST STRESS PERIOD



            AREAL INFILTRATION RATE
 READING ON UNIT   19 WITH FORMAT: (10F4.0)            

            1           2           3           4           5           6           7           8           9          10
 ........................................................................................................................
   1   1.2000E-09   0.000       0.000       0.000       0.000       0.000       0.000       0.000       0.000       0.000    
   2   2.1000E-09  2.0000E-09  8.0000E-10  8.5000E-09   0.000       0.000       0.000       0.000       0.000       0.000    
   3   5.0000E-10  1.1000E-09  8.8000E-09  5.5000E-09   0.000       0.000       0.000       0.000       0.000       0.000    
   4   8.5000E-09  1.1000E-09  1.1000E-09  1.1000E-09  2.0000E-09   0.000       0.000       0.000       0.000       0.000    
   5   8.5000E-09  1.1000E-09  1.1000E-09  1.1000E-09  1.1000E-09   0.000       0.000       0.000       0.000       0.000    
   6   8.5000E-09  5.2000E-09  2.1000E-09  1.1000E-09  1.5000E-09   0.000       0.000       0.000       0.000       0.000    
   7   8.5000E-09  5.2000E-09  2.1000E-09  1.2000E-09  2.0000E-09   0.000       0.000       0.000       0.000       0.000    
   8   5.0000E-10  5.2000E-09  2.1000E-09  1.2000E-09  5.0000E-09   0.000       0.000       0.000       0.000       0.000    
   9   5.0000E-10  5.2000E-09  2.1000E-09  1.2000E-09  5.0000E-09   0.000       0.000       0.000       0.000       0.000    
  10   5.0000E-10  5.2000E-09  2.1000E-09  1.2000E-09  5.8000E-09   0.000       0.000       0.000       0.000       0.000    
  11   1.0000E-10  1.1000E-09  1.1000E-09  1.2000E-09  5.0000E-09   0.000       0.000       0.000       0.000       0.000    
  12   1.1000E-09  1.1000E-09  1.1000E-09  1.1000E-09  2.0000E-09   0.000       0.000       0.000       0.000       0.000    
  13   1.1000E-09  2.2000E-09  2.2000E-09  2.1000E-09  1.0000E-09   0.000       0.000       0.000       0.000       0.000    
  14   2.0000E-10  5.5000E-09  5.5000E-09  5.2000E-09  1.0000E-09   0.000       0.000       0.000       0.000       0.000    
  15    0.000      8.8000E-09  8.8000E-09   0.000       0.000       0.000       0.000       0.000       0.000       0.000    

                  ET RATE =  5.000000E-10

 USING ET EXTINCTION DEPTH FROM PREVIOUS STRESS PERIOD. CURRENT PERIOD IS:      36

 USING EXTINCTION WATER CONTENT FROM PREVIOUS STRESS PERIOD. CURRENT PERIOD IS:      36

 USING AIR ENTRY PRESSURE FROM PREVIOUS STRESS PERIOD. CURRENT PERIOD IS:      36

 USING ROOT PRESSURE HEAD FROM PREVIOUS STRESS PERIOD. CURRENT PERIOD IS:      36

 USING ROOT ACTIVITY FROM PREVIOUS STRESS PERIOD. CURRENT PERIOD IS:      36

 PROCESSING AG STRESS PERIOD DATA

 READING AG STRESS PERIOD DATA

 READING IRRIGATION SEGMENT

 READING IRRIGATION WELL

 READING SUPPLEMENTAL WELL

 END PROCESSING AG STRESS PERIOD DATA OPTIONS
 
 SOLVING FOR HEAD 
                                                   Max.-Head-Change                         Max.-Flux-Residual
  Residual-Control   Outer-Iter.   Inner-Iter.     Column Row Layer    Maximum-Head-Change  Column Row Layer    Maximum-Flux-Residual          L2-NORM 
          0                 1           2             4    7     1       0.1640016955E+00       4    7    1         0.8939020177E+01      0.1205575546E+02
          0                 2           2             4    7     1       0.6560373849E-01       4    7    1         0.3581765677E+01      0.3979270747E+01
          0                 3           2             4    7     1       0.2623678039E-01       4    7    1         0.1432130488E+01      0.1433563433E+01
          0                 4           2             4    7     1       0.1049217063E-01       4    7    1         0.5727532628E+00      0.5727594475E+00
          0                 5           1             4    7     1       0.4195833274E-02       4    7    1         0.2290488483E+00      0.2290495362E+00
          0                 6           1             4    7     1       0.1677919237E-02       4    7    1         0.9159659088E-01      0.9159686383E-01
          0                 7           1             4    7     1       0.6710021652E-03       4    7    1         0.3662964907E-01      0.3662975630E-01
          0                 8           1             4    7     1       0.2683346824E-03       4    7    1         0.1464824560E-01      0.1464828861E-01
          0                 9           1             4    7     1       0.1073074082E-03       4    7    1         0.5857854108E-02      0.5857871289E-02
          0                10           1             4    7     1       0.4291238057E-04       4    7    1         0.2342563985E-02      0.2342570861E-02

    ------------------------------------------------
       NWT REQUIRED           10 OUTER ITERATIONS 
       AND A TOTAL OF         14 INNER ITERATIONS.
    ------------------------------------------------

 NO OUTPUT CONTROL FOR STRESS PERIOD   36   TIME STEP    1
 
 SOLVING FOR HEAD 
                                                   Max.-Head-Change                         Max.-Flux-Residual
  Residual-Control   Outer-Iter.   Inner-Iter.     Column Row Layer    Maximum-Head-Change  Column Row Layer    Maximum-Flux-Residual          L2-NORM 
          0                 1           2             5    6     1      -0.7749355970E-01       5    6    1        -0.4388505836E+01      0.7233872316E+01
          0                 2           2             5    6     1       0.7530889959E-02       5    6    1         0.4382774043E+00      0.6861033964E+00
          0                 3           2             5    6     1      -0.5127459387E-03       5    6    1        -0.3068005427E-01      0.4773576601E-01
          0                 4           1             5    6     1       0.2040549220E-04       5    6    1         0.1254813085E-02      0.1951426498E-02

    ------------------------------------------------
       NWT REQUIRED            4 OUTER ITERATIONS 
       AND A TOTAL OF          7 INNER ITERATIONS.
    ------------------------------------------------

 NO OUTPUT CONTROL FOR STRESS PERIOD   36   TIME STEP    2
 
 SOLVING FOR HEAD 
                                                   Max.-Head-Change                         Max.-Flux-Residual
  Residual-Control   Outer-Iter.   Inner-Iter.     Column Row Layer    Maximum-Head-Change  Column Row Layer    Maximum-Flux-Residual          L2-NORM 
          0                 1           2             5    6     1      -0.7114047264E-01       5    6    1        -0.4027926951E+01      0.6667745863E+01
          0                 2           2             5    6     1       0.6919236381E-02       5    6    1         0.4027370206E+00      0.6665473658E+00
          0                 3           2             5    6     1      -0.4711820452E-03       5    6    1        -0.2819213030E-01      0.4665714896E-01
          0                 4           1             5    6     1       0.1874873257E-04       5    6    1         0.1153057294E-02      0.1908141007E-02

    ------------------------------------------------
       NWT REQUIRED            4 OUTER ITERATIONS 
       AND A TOTAL OF          7 INNER ITERATIONS.
    ------------------------------------------------

 NO OUTPUT CONTROL FOR STRESS PERIOD   36   TIME STEP    3
 
 SOLVING FOR HEAD 
                                                   Max.-Head-Change                         Max.-Flux-Residual
  Residual-Control   Outer-Iter.   Inner-Iter.     Column Row Layer    Maximum-Head-Change  Column Row Layer    Maximum-Flux-Residual          L2-NORM 
          0                 1           2             5    6     1      -0.6531713238E-01       5    6    1        -0.3697411131E+01      0.6217917278E+01
          0                 2           2             5    6     1       0.6352913492E-02       5    6    1         0.3696942892E+00      0.6217277352E+00
          0                 3           2             5    6     1      -0.4326163330E-03       5    6    1        -0.2587905439E-01      0.4351986607E-01
          0                 4           1             5    6     1       0.1721417307E-04       5    6    1         0.1058452757E-02      0.1779865296E-02

    ------------------------------------------------
       NWT REQUIRED            4 OUTER ITERATIONS 
       AND A TOTAL OF          7 INNER ITERATIONS.
    ------------------------------------------------

 NO OUTPUT CONTROL FOR STRESS PERIOD   36   TIME STEP    4
 
 SOLVING FOR HEAD 
                                                   Max.-Head-Change                         Max.-Flux-Residual
  Residual-Control   Outer-Iter.   Inner-Iter.     Column Row Layer    Maximum-Head-Change  Column Row Layer    Maximum-Flux-Residual          L2-NORM 
          0                 1           2             4    6     1       0.8322672891E-01       4    6    1         0.4608706614E+01      0.6729117336E+01
          0                 2           2             4    6     1       0.3328246556E-01       4    6    1         0.1810125499E+01      0.1875339426E+01
          0                 3           2             4    6     1       0.1330996997E-01       4    6    1         0.7270277564E+00      0.7278022130E+00
          0                 4           2             4    6     1       0.5322785804E-02       4    6    1         0.2905236790E+00      0.2905317725E+00
          0                 5           2             4    6     1       0.2128633629E-02       4    6    1         0.1161874986E+00      0.1161888859E+00
          0                 6           2             4    6     1       0.8512612469E-03       4    6    1         0.4646449213E-01      0.4646505491E-01
          0                 7           2             4    6     1       0.3404276392E-03       4    6    1         0.1858160143E-01      0.1858182650E-01
          0                 8           2             4    6     1       0.1361403193E-03       4    6    1         0.7430963189E-02      0.7431053182E-02
          0                 9           1             4    6     1       0.5444383626E-04       4    6    1         0.2971714433E-02      0.2971750482E-02

    ------------------------------------------------
       NWT REQUIRED            9 OUTER ITERATIONS 
       AND A TOTAL OF         17 INNER ITERATIONS.
    ------------------------------------------------

 NO OUTPUT CONTROL FOR STRESS PERIOD   36   TIME STEP    5
 
 SOLVING FOR HEAD 
                                                   Max.-Head-Change                         Max.-Flux-Residual
  Residual-Control   Outer-Iter.   Inner-Iter.     Column Row Layer    Maximum-Head-Change  Column Row Layer    Maximum-Flux-Residual          L2-NORM 
          0                 1           2             4    6     1       0.2317663249E+00       4    6    1         0.1271002979E+02      0.1349138163E+02
          0                 2           2             4    6     1       0.9268481020E-01       4    6    1         0.5053915461E+01      0.5074123675E+01
          0                 3           2             4    6     1       0.3706502088E-01       4    6    1         0.2023700940E+01      0.2023921099E+01
          0                 4           2             4    6     1       0.1482246418E-01       4    6    1         0.8090928633E+00      0.8090990995E+00
          0                 5           2             4    6     1       0.5927569426E-02       4    6    1         0.3235740332E+00      0.3235747954E+00
          0                 6           2             4    6     1       0.2370461631E-02       4    6    1         0.1293977571E+00      0.1293981198E+00
          0                 7           2             4    6     1       0.9479582848E-03       4    6    1         0.5174681795E-01      0.5174695805E-01
          0                 8           2             4    6     1       0.3790927941E-03       4    6    1         0.2069378246E-01      0.2069383881E-01
          0                 9           2             4    6     1       0.1516009192E-03       4    6    1         0.8275537517E-02      0.8275560025E-02
          0                10           1             4    6     1       0.6062589170E-04       4    6    1         0.3309424854E-02      0.3309433858E-02

    ------------------------------------------------
       NWT REQUIRED           10 OUTER ITERATIONS 
       AND A TOTAL OF         19 INNER ITERATIONS.
    ------------------------------------------------

 NO OUTPUT CONTROL FOR STRESS PERIOD   36   TIME STEP    6
 
 SOLVING FOR HEAD 
                                                   Max.-Head-Change                         Max.-Flux-Residual
  Residual-Control   Outer-Iter.   Inner-Iter.     Column Row Layer    Maximum-Head-Change  Column Row Layer    Maximum-Flux-Residual          L2-NORM 
          0                 1           2             4    6     1       0.2105807992E+00       4    6    1         0.1153455654E+02      0.1221729824E+02
          0                 2           2             4    6     1       0.8420956013E-01       4    6    1         0.4593243690E+01      0.4610859723E+01
          0                 3           2             4    6     1       0.3367449828E-01       4    6    1         0.1838531800E+01      0.1838729736E+01
          0                 4           2             4    6     1       0.1346608979E-01       4    6    1         0.7350738842E+00      0.7350789544E+00
          0                 5           2             4    6     1       0.5384955613E-02       4    6    1         0.2939601114E+00      0.2939608849E+00
          0                 6           2             4    6     1       0.2153390788E-02       4    6    1         0.1175510036E+00      0.1175513554E+00
          0                 7           2             4    6     1       0.8611198771E-03       4    6    1         0.4700756486E-01      0.4700770174E-01
          0                 8           2             4    6     1       0.3443534142E-03       4    6    1         0.1879786298E-01      0.1879791795E-01
          0                 9           2             4    6     1       0.1377035636E-03       4    6    1         0.7517082303E-02      0.7517104271E-02
          0                10           1             4    6     1       0.5506630913E-04       4    6    1         0.3006007807E-02      0.3006016624E-02

    ------------------------------------------------
       NWT REQUIRED           10 OUTER ITERATIONS 
       AND A TOTAL OF         19 INNER ITERATIONS.
    ------------------------------------------------

 NO OUTPUT CONTROL FOR STRESS PERIOD   36   TIME STEP    7
 
 SOLVING FOR HEAD 
                                                   Max.-Head-Change                         Max.-Flux-Residual
  Residual-Control   Outer-Iter.   Inner-Iter.     Column Row Layer    Maximum-Head-Change  Column Row Layer    Maximum-Flux-Residual          L2-NORM 
          0                 1           2             4    6     1       0.1915614150E+00       4    6    1         0.1047997989E+02      0.1109851517E+02
          0                 2           2             4    6     1       0.7660032982E-01       4    6    1         0.4179631953E+01      0.4195566880E+01
          0                 3           2             4    6     1       0.3063052288E-01       4    6    1         0.1672298218E+01      0.1672483833E+01
          0                 4           2             4    6     1       0.1224837523E-01       4    6    1         0.6686278594E+00      0.6686318553E+00
          0                 5           2             4    6     1       0.4897810655E-02       4    6    1         0.2673752344E+00      0.2673759602E+00
          0                 6           2             4    6     1       0.1958509362E-02       4    6    1         0.1069160139E+00      0.1069163327E+00
          0                 7           2             4    6     1       0.7831579704E-03       4    6    1         0.4275304791E-01      0.4275317265E-01
          0                 8           2             4    6     1       0.3131649270E-03       4    6    1         0.1709585425E-01      0.1709590429E-01
          0                 9           2             4    6     1       0.1252266814E-03       4    6    1         0.6836197562E-02      0.6836217547E-02
          0                10           1             4    6     1       0.5007496184E-04       4    6    1         0.2733621467E-02      0.2733629456E-02

    ------------------------------------------------
       NWT REQUIRED           10 OUTER ITERATIONS 
       AND A TOTAL OF         19 INNER ITERATIONS.
    ------------------------------------------------

 NO OUTPUT CONTROL FOR STRESS PERIOD   36   TIME STEP    8
 
 SOLVING FOR HEAD 
                                                   Max.-Head-Change                         Max.-Flux-Residual
  Residual-Control   Outer-Iter.   Inner-Iter.     Column Row Layer    Maximum-Head-Change  Column Row Layer    Maximum-Flux-Residual          L2-NORM 
          0                 1           2             4    6     1       0.1744782502E+00       4    6    1         0.9533209742E+01      0.1011741641E+02
          0                 2           2             4    6     1       0.6976528094E-01       4    6    1         0.3808081861E+01      0.3823122128E+01
          0                 3           2             4    6     1       0.2789572194E-01       4    6    1         0.1522967820E+01      0.1523149792E+01
          0                 4           2             4    6     1       0.1115416066E-01       4    6    1         0.6089275349E+00      0.6089306464E+00
          0                 5           2             4    6     1       0.4460017038E-02       4    6    1         0.2434861815E+00      0.2434870325E+00
          0                 6           2             4    6     1       0.1783348734E-02       4    6    1         0.9735820993E-01      0.9735890750E-01
          0                 7           2             4    6     1       0.7130764477E-03       4    6    1         0.3892896767E-01      0.3892908326E-01
          0                 8           2             4    6     1       0.2851254144E-03       4    6    1         0.1556584550E-01      0.1556589115E-01
          0                 9           2             4    6     1       0.1140081174E-03       4    6    1         0.6224043224E-02      0.6224061494E-02
          0                10           1             4    6     1       0.4558643404E-04       4    6    1         0.2488699504E-02      0.2505164485E-02

    ------------------------------------------------
       NWT REQUIRED           10 OUTER ITERATIONS 
       AND A TOTAL OF         19 INNER ITERATIONS.
    ------------------------------------------------

 NO OUTPUT CONTROL FOR STRESS PERIOD   36   TIME STEP    9
 
 SOLVING FOR HEAD 
                                                   Max.-Head-Change                         Max.-Flux-Residual
  Residual-Control   Outer-Iter.   Inner-Iter.     Column Row Layer    Maximum-Head-Change  Column Row Layer    Maximum-Flux-Residual          L2-NORM 
          0                 1           2             4    6     1       0.1093355050E+00       4    6    1         0.5964467244E+01      0.6775249072E+01
          0                 2           2             4    6     1       0.3820185758E-02       4    6    1         0.2090327979E+00      0.3806384586E+00
          0                 3           2             4    5     1       0.2085865268E-03       4    5    1         0.1181229695E-01      0.2334017894E-01
          0                 4           1             4    5     1      -0.8073686779E-05       4    5    1        -0.4772193925E-03      0.9414270030E-03

    ------------------------------------------------
       NWT REQUIRED            4 OUTER ITERATIONS 
       AND A TOTAL OF          7 INNER ITERATIONS.
    ------------------------------------------------

 NO OUTPUT CONTROL FOR STRESS PERIOD   36   TIME STEP   10
 
 SOLVING FOR HEAD 
                                                   Max.-Head-Change                         Max.-Flux-Residual
  Residual-Control   Outer-Iter.   Inner-Iter.     Column Row Layer    Maximum-Head-Change  Column Row Layer    Maximum-Flux-Residual          L2-NORM 
          0                 1           2             4    5     1       0.3106807235E-01       4    5    1         0.1702854501E+01      0.3523218459E+01
          0                 2           2             4    5     1      -0.3022162276E-02       4    5    1        -0.1702824417E+00      0.3520616439E+00
          0                 3           2             4    5     1       0.2057984598E-03       4    5    1         0.1191980439E-01      0.2464334783E-01
          0                 4           1             4    5     1      -0.8188904179E-05       4    5    1        -0.4875205527E-03      0.1007853983E-02

    ------------------------------------------------
       NWT REQUIRED            4 OUTER ITERATIONS 
       AND A TOTAL OF          7 INNER ITERATIONS.
    ------------------------------------------------

 NO OUTPUT CONTROL FOR STRESS PERIOD   36   TIME STEP   11
 
 SOLVING FOR HEAD 
                                                   Max.-Head-Change                         Max.-Flux-Residual
  Residual-Control   Outer-Iter.   Inner-Iter.     Column Row Layer    Maximum-Head-Change  Column Row Layer    Maximum-Flux-Residual          L2-NORM 
          0                 1           2             4    5     1       0.2946159024E-01       4    5    1         0.1614290495E+01      0.3363514190E+01
          0                 2           2             4    5     1      -0.2865771663E-02       4    5    1        -0.1614263751E+00      0.3363361917E+00
          0                 3           2             4    5     1       0.1951487950E-03       4    5    1         0.1129987645E-01      0.2354272025E-01
          0                 4           1             4    5     1      -0.7765144810E-05       4    5    1        -0.4621654784E-03      0.9627959003E-03

    ------------------------------------------------
       NWT REQUIRED            4 OUTER ITERATIONS 
       AND A TOTAL OF          7 INNER ITERATIONS.
    ------------------------------------------------

 NO OUTPUT CONTROL FOR STRESS PERIOD   36   TIME STEP   12
 
 SOLVING FOR HEAD 
                                                   Max.-Head-Change                         Max.-Flux-Residual
  Residual-Control   Outer-Iter.   Inner-Iter.     Column Row Layer    Maximum-Head-Change  Column Row Layer    Maximum-Flux-Residual          L2-NORM 
          0                 1           2             4    5     1       0.2794712407E-01       4    5    1         0.1530809713E+01      0.3213378229E+01
          0                 2           2             4    5     1      -0.2718459589E-02       4    5    1        -0.1530785936E+00      0.3213241243E+00
          0                 3           2             4    5     1       0.1851173479E-03       4    5    1         0.1071552869E-01      0.2249194710E-01
          0                 4           1             4    5     1      -0.7365984525E-05       4    5    1        -0.4382656339E-03      0.9198862441E-03

    ------------------------------------------------
       NWT REQUIRED            4 OUTER ITERATIONS 
       AND A TOTAL OF          7 INNER ITERATIONS.
    ------------------------------------------------

 NO OUTPUT CONTROL FOR STRESS PERIOD   36   TIME STEP   13
 
 SOLVING FOR HEAD 
                                                   Max.-Head-Change                         Max.-Flux-Residual
  Residual-Control   Outer-Iter.   Inner-Iter.     Column Row Layer    Maximum-Head-Change  Column Row Layer    Maximum-Flux-Residual          L2-NORM 
          0                 1           2             4    5     1       0.2651934092E-01       4    5    1         0.1452122675E+01      0.3072360303E+01
          0                 2           2             4    5     1      -0.2579578924E-02       4    5    1        -0.1452101523E+00      0.3072236819E+00
          0                 3           2             4    5     1       0.1756600530E-03       4    5    1         0.1016473505E-01      0.2150497837E-01
          0                 4           1             4    5     1      -0.6989670161E-05       4    5    1        -0.4157381550E-03      0.8795117097E-03

    ------------------------------------------------
       NWT REQUIRED            4 OUTER ITERATIONS 
       AND A TOTAL OF          7 INNER ITERATIONS.
    ------------------------------------------------

 NO OUTPUT CONTROL FOR STRESS PERIOD   36   TIME STEP   14
 
 SOLVING FOR HEAD 
                                                   Max.-Head-Change                         Max.-Flux-Residual
  Residual-Control   Outer-Iter.   Inner-Iter.     Column Row Layer    Maximum-Head-Change  Column Row Layer    Maximum-Flux-Residual          L2-NORM 
          0                 1           2             4    5     1       0.2517311261E-01       4    5    1         0.1377944907E+01      0.2939800552E+01
          0                 2           2             4    5     1      -0.2448630897E-02       4    5    1        -0.1377926078E+00      0.2939710907E+00
          0                 3           2             4    5     1       0.1667429458E-03       4    5    1         0.9645504523E-02      0.2057735922E-01
          0                 4           1             4    5     1      -0.6634850351E-05       4    5    1        -0.3945016015E-03      0.8416013793E-03

    ------------------------------------------------
       NWT REQUIRED            4 OUTER ITERATIONS 
       AND A TOTAL OF          7 INNER ITERATIONS.
    ------------------------------------------------

 NO OUTPUT CONTROL FOR STRESS PERIOD   36   TIME STEP   15
 
 SOLVING FOR HEAD 
                                                   Max.-Head-Change                         Max.-Flux-Residual
  Residual-Control   Outer-Iter.   Inner-Iter.     Column Row Layer    Maximum-Head-Change  Column Row Layer    Maximum-Flux-Residual          L2-NORM 
          0                 1           2             4    5     1       0.2390310232E-01       4    5    1         0.1307980881E+01      0.2815102378E+01
          0                 2           2             4    5     1      -0.2325096428E-02       4    5    1        -0.1307964109E+00      0.2815001639E+00
          0                 3           2             4    5     1       0.1583306782E-03       4    5    1         0.9155768598E-02      0.1970444417E-01
          0                 4           1             4    5     1      -0.6300118925E-05       4    5    1        -0.3744713836E-03      0.8058720619E-03

    ------------------------------------------------
       NWT REQUIRED            4 OUTER ITERATIONS 
       AND A TOTAL OF          7 INNER ITERATIONS.
    ------------------------------------------------

 NO OUTPUT CONTROL FOR STRESS PERIOD   36   TIME STEP   16
 
 SOLVING FOR HEAD 
                                                   Max.-Head-Change                         Max.-Flux-Residual
  Residual-Control   Outer-Iter.   Inner-Iter.     Column Row Layer    Maximum-Head-Change  Column Row Layer    Maximum-Flux-Residual          L2-NORM 
          0                 1           2             4    5     1       0.2270513154E-01       4    5    1         0.1241998340E+01      0.2697709638E+01
          0                 2           2             4    5     1      -0.2208569110E-02       4    5    1        -0.1241983391E+00      0.2697617996E+00
          0                 3           2             4    5     1       0.1503955746E-03       4    5    1         0.8693901645E-02      0.1888276044E-01
          0                 4           1             4    5     1      -0.5984373652E-05       4    5    1        -0.3555810003E-03      0.7722612385E-03

    ------------------------------------------------
       NWT REQUIRED            4 OUTER ITERATIONS 
       AND A TOTAL OF          7 INNER ITERATIONS.
    ------------------------------------------------

 NO OUTPUT CONTROL FOR STRESS PERIOD   36   TIME STEP   17
 
 SOLVING FOR HEAD 
                                                   Max.-Head-Change                         Max.-Flux-Residual
  Residual-Control   Outer-Iter.   Inner-Iter.     Column Row Layer    Maximum-Head-Change  Column Row Layer    Maximum-Flux-Residual          L2-NORM 
          0                 1           2             4    5     1       0.2157475865E-01       4    5    1         0.1179750996E+01      0.2587117915E+01
          0                 2           2             4    5     1      -0.2098617496E-02       4    5    1        -0.1179739465E+00      0.2587036163E+00
          0                 3           2             4    5     1       0.1429077359E-03       4    5    1         0.8258157608E-02      0.1810869339E-01
          0                 4           1             4    5     1      -0.5686428719E-05       4    5    1        -0.3377592220E-03      0.7406098159E-03

    ------------------------------------------------
       NWT REQUIRED            4 OUTER ITERATIONS 
       AND A TOTAL OF          7 INNER ITERATIONS.
    ------------------------------------------------

 NO OUTPUT CONTROL FOR STRESS PERIOD   36   TIME STEP   18
 
 SOLVING FOR HEAD 
                                                   Max.-Head-Change                         Max.-Flux-Residual
  Residual-Control   Outer-Iter.   Inner-Iter.     Column Row Layer    Maximum-Head-Change  Column Row Layer    Maximum-Flux-Residual          L2-NORM 
          0                 1           2             4    5     1       0.2050808061E-01       4    5    1         0.1121023315E+01      0.2482865551E+01
          0                 2           2             4    5     1      -0.1994908185E-02       4    5    1        -0.1121044635E+00      0.2482820006E+00
          0                 3           2             4    5     1       0.1358455472E-03       4    5    1         0.7847295673E-02      0.1737926898E-01
          0                 4           1             4    5     1      -0.5405417673E-05       4    5    1        -0.3209549332E-03      0.7107607614E-03

    ------------------------------------------------
       NWT REQUIRED            4 OUTER ITERATIONS 
       AND A TOTAL OF          7 INNER ITERATIONS.
    ------------------------------------------------

 NO OUTPUT CONTROL FOR STRESS PERIOD   36   TIME STEP   19
 
 SOLVING FOR HEAD 
                                                   Max.-Head-Change                         Max.-Flux-Residual
  Residual-Control   Outer-Iter.   Inner-Iter.     Column Row Layer    Maximum-Head-Change  Column Row Layer    Maximum-Flux-Residual          L2-NORM 
          0                 1           2             4    5     1       0.1950106477E-01       4    5    1         0.1065595703E+01      0.2384509845E+01
          0                 2           2             4    5     1      -0.1896950141E-02       4    5    1        -0.1065615067E+00      0.2384580652E+00
          0                 3           2             4    5     1       0.1291749972E-03       4    5    1         0.7459290363E-02      0.1669081654E-01
          0                 4           1             4    5     1      -0.5139991912E-05       4    5    1        -0.3050854802E-03      0.6826636752E-03

    ------------------------------------------------
       NWT REQUIRED            4 OUTER ITERATIONS 
       AND A TOTAL OF          7 INNER ITERATIONS.
    ------------------------------------------------

 NO OUTPUT CONTROL FOR STRESS PERIOD   36   TIME STEP   20
 
 SOLVING FOR HEAD 
                                                   Max.-Head-Change                         Max.-Flux-Residual
  Residual-Control   Outer-Iter.   Inner-Iter.     Column Row Layer    Maximum-Head-Change  Column Row Layer    Maximum-Flux-Residual          L2-NORM 
          0                 1           2             4    5     1       0.1855013651E-01       4    5    1         0.1013264303E+01      0.2291659009E+01
          0                 2           2             4    5     1      -0.1804291922E-02       4    5    1        -0.1013281899E+00      0.2292804712E+00
          0                 3           2             4    5     1       0.1228653389E-03       4    5    1         0.7092959665E-02      0.1604922145E-01
          0                 4           1             4    5     1      -0.4888922792E-05       4    5    1        -0.2901025196E-03      0.6563691754E-03

    ------------------------------------------------
       NWT REQUIRED            4 OUTER ITERATIONS 
       AND A TOTAL OF          7 INNER ITERATIONS.
    ------------------------------------------------

 NO OUTPUT CONTROL FOR STRESS PERIOD   36   TIME STEP   21
 
 SOLVING FOR HEAD 
                                                   Max.-Head-Change                         Max.-Flux-Residual
  Residual-Control   Outer-Iter.   Inner-Iter.     Column Row Layer    Maximum-Head-Change  Column Row Layer    Maximum-Flux-Residual          L2-NORM 
          0                 1           2             4    5     1       0.1765260223E-01       4    5    1         0.9638641280E+00      0.2203822781E+01
          0                 2           2             4    5     1      -0.1717140344E-02       4    5    1        -0.9638801179E-01      0.2198936540E+00
          0                 3           2             4    5     1       0.1169306634E-03       4    5    1         0.6747148616E-02      0.1539220589E-01
          0                 4           1             4    5     1      -0.4652777203E-05       4    5    1        -0.2759588347E-03      0.6295218071E-03

    ------------------------------------------------
       NWT REQUIRED            4 OUTER ITERATIONS 
       AND A TOTAL OF          7 INNER ITERATIONS.
    ------------------------------------------------

 NO OUTPUT CONTROL FOR STRESS PERIOD   36   TIME STEP   22
 
 SOLVING FOR HEAD 
                                                   Max.-Head-Change                         Max.-Flux-Residual
  Residual-Control   Outer-Iter.   Inner-Iter.     Column Row Layer    Maximum-Head-Change  Column Row Layer    Maximum-Flux-Residual          L2-NORM 
          0                 1           2             4    5     1       0.1680503072E-01       4    5    1         0.9172305273E+00      0.2121214125E+01
          0                 2           2             4    5     1      -0.1634692470E-02       4    5    1        -0.9172450689E-01      0.2121183220E+00
          0                 3           2             4    5     1       0.1113162894E-03       4    5    1         0.6420704480E-02      0.1484792301E-01
          0                 4           1             4    5     1      -0.4429376469E-05       4    5    1        -0.2626072555E-03      0.6072629675E-03

    ------------------------------------------------
       NWT REQUIRED            4 OUTER ITERATIONS 
       AND A TOTAL OF          7 INNER ITERATIONS.
    ------------------------------------------------

 NO OUTPUT CONTROL FOR STRESS PERIOD   36   TIME STEP   23
 
 SOLVING FOR HEAD 
                                                   Max.-Head-Change                         Max.-Flux-Residual
  Residual-Control   Outer-Iter.   Inner-Iter.     Column Row Layer    Maximum-Head-Change  Column Row Layer    Maximum-Flux-Residual          L2-NORM 
          0                 1           2             4    5     1       0.1600426441E-01       4    5    1         0.8731809608E+00      0.2043308891E+01
          0                 2           2             4    5     1      -0.1556797828E-02       4    5    1        -0.8731941915E-01      0.2043280360E+00
          0                 3           2             4    5     1       0.1060119720E-03       4    5    1         0.6112349478E-02      0.1430264032E-01
          0                 4           1             4    5     1      -0.4218312579E-05       4    5    1        -0.2499955031E-03      0.5849549430E-03

    ------------------------------------------------
       NWT REQUIRED            4 OUTER ITERATIONS 
       AND A TOTAL OF          7 INNER ITERATIONS.
    ------------------------------------------------

 NO OUTPUT CONTROL FOR STRESS PERIOD   36   TIME STEP   24
 
 SOLVING FOR HEAD 
                                                   Max.-Head-Change                         Max.-Flux-Residual
  Residual-Control   Outer-Iter.   Inner-Iter.     Column Row Layer    Maximum-Head-Change  Column Row Layer    Maximum-Flux-Residual          L2-NORM 
          0                 1           2             4    5     1       0.1524774636E-01       4    5    1         0.8315730051E+00      0.1969548786E+01
          0                 2           2             4    5     1      -0.1483207516E-02       4    5    1        -0.8315850493E-01      0.1969522219E+00
          0                 3           1             4    5     1       0.1010006659E-03       4    5    1         0.5821086473E-02      0.1378635493E-01
          0                 4           1             4    5     1      -0.4018814868E-05       4    5    1        -0.2380771198E-03      0.5638526337E-03

    ------------------------------------------------
       NWT REQUIRED            4 OUTER ITERATIONS 
       AND A TOTAL OF          6 INNER ITERATIONS.
    ------------------------------------------------

 NO OUTPUT CONTROL FOR STRESS PERIOD   36   TIME STEP   25
 
 SOLVING FOR HEAD 
                                                   Max.-Head-Change                         Max.-Flux-Residual
  Residual-Control   Outer-Iter.   Inner-Iter.     Column Row Layer    Maximum-Head-Change  Column Row Layer    Maximum-Flux-Residual          L2-NORM 
          0                 1           2             3    7     1       0.1472778642E-01       4    5    1         0.7922592725E+00      0.1899657904E+01
          0                 2           2             3    7     1      -0.1432611264E-02       4    5    1        -0.7922702420E-01      0.1893511236E+00
          0                 3           1             3    7     1       0.9755558918E-04       4    5    1         0.5545883703E-02      0.1325428811E-01

    ------------------------------------------------
       NWT REQUIRED            3 OUTER ITERATIONS 
       AND A TOTAL OF          5 INNER ITERATIONS.
    ------------------------------------------------

 NO OUTPUT CONTROL FOR STRESS PERIOD   36   TIME STEP   26
 
 SOLVING FOR HEAD 
                                                   Max.-Head-Change                         Max.-Flux-Residual
  Residual-Control   Outer-Iter.   Inner-Iter.     Column Row Layer    Maximum-Head-Change  Column Row Layer    Maximum-Flux-Residual          L2-NORM 
          0                 1           2             3    7     1       0.1442128361E-01       4    5    1         0.7551188766E+00      0.1833905857E+01
          0                 2           2             3    7     1      -0.1402796784E-02       4    5    1        -0.7551288727E-01      0.1833884596E+00
          0                 3           1             3    7     1       0.9552533355E-04       4    5    1         0.5285894921E-02      0.1283693693E-01

    ------------------------------------------------
       NWT REQUIRED            3 OUTER ITERATIONS 
       AND A TOTAL OF          5 INNER ITERATIONS.
    ------------------------------------------------

 NO OUTPUT CONTROL FOR STRESS PERIOD   36   TIME STEP   27
 
 SOLVING FOR HEAD 
                                                   Max.-Head-Change                         Max.-Flux-Residual
  Residual-Control   Outer-Iter.   Inner-Iter.     Column Row Layer    Maximum-Head-Change  Column Row Layer    Maximum-Flux-Residual          L2-NORM 
          0                 1           2             3    7     1       0.1412050008E-01       4    5    1         0.7200032963E+00      0.1771587377E+01
          0                 2           2             3    7     1      -0.1373538751E-02       4    5    1        -0.7200124095E-01      0.1771567635E+00
          0                 3           1             3    7     1       0.9353296458E-04       4    5    1         0.5040080417E-02      0.1240072566E-01

    ------------------------------------------------
       NWT REQUIRED            3 OUTER ITERATIONS 
       AND A TOTAL OF          5 INNER ITERATIONS.
    ------------------------------------------------

 NO OUTPUT CONTROL FOR STRESS PERIOD   36   TIME STEP   28
 
 SOLVING FOR HEAD 
                                                   Max.-Head-Change                         Max.-Flux-Residual
  Residual-Control   Outer-Iter.   Inner-Iter.     Column Row Layer    Maximum-Head-Change  Column Row Layer    Maximum-Flux-Residual          L2-NORM 
          0                 1           2             3    7     1       0.1382522923E-01       4    5    1         0.6868055354E+00      0.1712408561E+01
          0                 2           2             3    7     1      -0.1344816959E-02       4    5    1        -0.6868138480E-01      0.1712389924E+00
          0                 3           1             3    7     1       0.9157711240E-04       4    5    1         0.4807691143E-02      0.1198650207E-01

    ------------------------------------------------
       NWT REQUIRED            3 OUTER ITERATIONS 
       AND A TOTAL OF          5 INNER ITERATIONS.
    ------------------------------------------------

 NO OUTPUT CONTROL FOR STRESS PERIOD   36   TIME STEP   29
 
 SOLVING FOR HEAD 
                                                   Max.-Head-Change                         Max.-Flux-Residual
  Residual-Control   Outer-Iter.   Inner-Iter.     Column Row Layer    Maximum-Head-Change  Column Row Layer    Maximum-Flux-Residual          L2-NORM 
          0                 1           2             3    7     1       0.1353573891E-01       4    5    1         0.6554249129E+00      0.1656153060E+01
          0                 2           2             3    7     1      -0.1316657459E-02       4    5    1        -0.6554324991E-01      0.1656135339E+00
          0                 3           1             3    7     1       0.8965955052E-04       4    5    1         0.4588022292E-02      0.1159273887E-01

    ------------------------------------------------
       NWT REQUIRED            3 OUTER ITERATIONS 
       AND A TOTAL OF          5 INNER ITERATIONS.
    ------------------------------------------------

 NO OUTPUT CONTROL FOR STRESS PERIOD   36   TIME STEP   30



 STREAM LISTING     PERIOD     36   STEP       30

 LAYER ROW COL. STREAM  RCH.  FLOW INTO     FLOW TO   FLOW OUT OF   OVRLND.     DIRECT     STREAM       STREAM     STREAM     STREAM   STREAMBED  STREAMBED
                SEG.NO.  NO.  STRM. RCH.    AQUIFER    STRM. RCH.    RUNOFF     PRECIP       ET          HEAD       DEPTH      WIDTH   CONDCTNC.   GRADIENT

   1    1    1     1     1    1.9499E+01  2.1750E-01   1.9282E+01  0.000E+00  0.000E+00  0.000E+00  1.09414E+03  1.090E+00  1.182E+01  5.318E-02  1.363E+00
   1    2    2     1     2    1.9282E+01  3.3555E-01   1.8946E+01  0.000E+00  0.000E+00  0.000E+00  1.08914E+03  1.086E+00  1.173E+01  8.213E-02  1.362E+00
   1    3    3     1     3    1.8946E+01  2.8492E-01   1.8661E+01  0.000E+00  0.000E+00  0.000E+00  1.08350E+03  1.081E+00  1.164E+01  6.982E-02  1.360E+00
   1    3    4     1     4    1.8661E+01  2.6135E-01   1.8400E+01  0.000E+00  0.000E+00  0.000E+00  1.07848E+03  1.076E+00  1.155E+01  6.412E-02  1.359E+00
   1    4    5     2     1    1.6400E+01  3.0673E-01   1.6093E+01  0.000E+00  0.000E+00  0.000E+00  1.07287E+03  9.324E-01  1.200E+01  7.800E-02  1.311E+00
   1    5    6     2     2    1.6093E+01  2.3538E-01   1.5858E+01  0.000E+00  0.000E+00  0.000E+00  1.06743E+03  9.230E-01  1.200E+01  6.000E-02  1.308E+00
   1    6    6     2     3    1.5858E+01  2.3489E-01   1.5623E+01  0.000E+00  0.000E+00  0.000E+00  1.06271E+03  9.149E-01  1.200E+01  6.000E-02  1.305E+00
   1    7    6     2     4    1.5623E+01  2.3440E-01   1.5389E+01  0.000E+00  0.000E+00  0.000E+00  1.05798E+03  9.067E-01  1.200E+01  6.000E-02  1.302E+00
   1    8    6     2     5    1.5389E+01  2.3390E-01   1.5155E+01  0.000E+00  0.000E+00  0.000E+00  1.05326E+03  8.984E-01  1.200E+01  6.000E-02  1.299E+00
   1    3    5     3     1    2.0000E+00  2.8252E-01   1.7175E+00  0.000E+00  0.000E+00  0.000E+00  1.07555E+03  1.909E+00  9.636E+00  7.227E-02  1.955E+00
   1    3    6     3     2    1.7175E+00  2.4905E-01   1.4684E+00  0.000E+00  0.000E+00  0.000E+00  1.07264E+03  1.727E+00  8.909E+00  6.682E-02  1.864E+00
   1    3    7     3     3    1.4684E+00  1.9718E-01   1.2712E+00  0.000E+00  0.000E+00  0.000E+00  1.06987E+03  1.555E+00  8.218E+00  5.547E-02  1.777E+00
   1    4    8     3     4    1.2712E+00  2.2567E-01   1.0456E+00  0.000E+00  0.000E+00  0.000E+00  1.06682E+03  1.364E+00  7.455E+00  6.709E-02  1.682E+00
   1    5    8     3     5    1.0456E+00  1.5790E-01   8.8768E-01  0.000E+00  0.000E+00  0.000E+00  1.06362E+03  1.164E+00  6.655E+00  4.991E-02  1.582E+00
   1    6    8     3     6    8.8768E-01  5.5980E-02   8.3170E-01  0.000E+00  0.000E+00  0.000E+00  1.06158E+03  1.036E+00  6.145E+00  1.844E-02  1.518E+00
   1    5   10     4     1    1.0000E+01  9.0919E-02   9.9091E+00  0.000E+00  0.000E+00  0.000E+00  1.07836E+03  6.368E-01  1.000E+01  2.500E-02  1.212E+00
   1    5    9     4     2    9.9091E+00  1.8158E-01   9.7275E+00  0.000E+00  0.000E+00  0.000E+00  1.07154E+03  6.315E-01  1.000E+01  5.000E-02  1.211E+00
   1    6    8     4     3    9.7275E+00  1.2689E-01   9.6006E+00  0.000E+00  0.000E+00  0.000E+00  1.06381E+03  6.256E-01  1.000E+01  3.500E-02  1.209E+00
   1    6    8     5     1    1.0432E+01  2.2686E-01   1.0205E+01  0.000E+00  0.000E+00  0.000E+00  1.05868E+03  6.790E-01  1.542E+01  6.166E-02  1.226E+00
   1    7    7     5     2    1.0205E+01  2.7894E-01   9.9265E+00  0.000E+00  0.000E+00  0.000E+00  1.05417E+03  6.732E-01  1.519E+01  7.594E-02  1.224E+00
   1    8    7     5     3    9.9265E+00  1.9221E-01   9.7343E+00  0.000E+00  0.000E+00  0.000E+00  1.04992E+03  6.676E-01  1.497E+01  5.241E-02  1.223E+00
   1    8    6     5     4    9.7343E+00  1.3577E-01   9.5985E+00  0.000E+00  0.000E+00  0.000E+00  1.04691E+03  6.637E-01  1.482E+01  3.706E-02  1.221E+00
   1    9    6     6     1    2.4753E+01  2.5261E-01   2.4501E+01  0.000E+00  0.000E+00  0.000E+00  1.04394E+03  1.210E+00  1.200E+01  6.000E-02  1.403E+00
   1   10    7     6     2    2.4501E+01  2.5216E-01   2.4249E+01  0.000E+00  0.000E+00  0.000E+00  1.03938E+03  1.203E+00  1.200E+01  6.000E-02  1.401E+00
   1   11    7     6     3    2.4249E+01  2.5171E-01   2.3997E+01  0.000E+00  0.000E+00  0.000E+00  1.03483E+03  1.195E+00  1.200E+01  6.000E-02  1.398E+00
   1   12    7     6     4    2.3997E+01  2.5126E-01   2.3746E+01  0.000E+00  0.000E+00  0.000E+00  1.03028E+03  1.188E+00  1.200E+01  6.000E-02  1.396E+00
   1   13    7     6     5    2.3746E+01  3.0895E-03   2.3742E+01  0.000E+00  0.000E+00  0.000E+00  1.02709E+03  1.184E+00  1.200E+01  2.400E-02  4.291E-02
   1   14    9     7     1    1.5000E+02  1.3474E+00   1.4865E+02  0.000E+00  0.000E+00  0.000E+00  1.03987E+03  2.288E+00  5.529E+01  5.593E-01  8.030E-01
   1   13    8     7     2    1.4865E+02  1.8707E+00   1.4678E+02  0.000E+00  0.000E+00  0.000E+00  1.03478E+03  2.279E+00  5.526E+01  6.148E-01  1.014E+00
   1   13    7     7     3    1.4678E+02  1.5218E+00   1.4526E+02  0.000E+00  0.000E+00  0.000E+00  1.02969E+03  2.270E+00  5.522E+01  5.584E-01  9.084E-01
   1   13    6     8     1    1.6900E+02  9.6250E-01   1.6804E+02  0.000E+00  0.000E+00  0.000E+00  1.02482E+03  2.943E+00  4.267E+01  4.348E-01  7.379E-01
   1   13    5     8     2    1.6804E+02  2.0988E-01   1.6783E+02  0.000E+00  0.000E+00  0.000E+00  1.01856E+03  2.939E+00  4.261E+01  4.342E-01  1.611E-01
   1   13    4     8     3    1.6783E+02 -2.3305E+00   1.7016E+02  0.000E+00  0.000E+00  0.000E+00  1.01232E+03  2.946E+00  4.271E+01  4.352E+00 -1.785E-01
   1   13    3     8     4    1.7016E+02 -3.5981E+00   1.7376E+02  0.000E+00  0.000E+00  0.000E+00  1.00609E+03  2.965E+00  4.299E+01  4.381E+00 -2.738E-01
   1   13    2     8     5    1.7376E+02 -2.5708E+00   1.7633E+02  0.000E+00  0.000E+00  0.000E+00  9.99860E+02  2.985E+00  4.328E+01  4.410E+00 -1.943E-01
   1   13    1     8     6    1.7633E+02 -1.9901E+00   1.7832E+02  0.000E+00  0.000E+00  0.000E+00  9.94874E+02  2.999E+00  4.349E+01  2.659E+00 -2.495E-01
   1    8    6     9     1    0.0000E+00  0.0000E+00   0.0000E+00  0.000E+00  0.000E+00  0.000E+00  1.07875E+03  0.000E+00  4.000E+00  0.000E+00  1.000E+00
   1    8    5     9     2    0.0000E+00  0.0000E+00   0.0000E+00  0.000E+00  0.000E+00  0.000E+00  1.07825E+03  0.000E+00  4.000E+00  0.000E+00  1.000E+00





UNSATURATED ZONE PACKAGE VOLUMETRIC BUDGET FOR  TIME STEP    30 STRESS PERIOD   36
  ------------------------------------------------------------------------------



     CUMULATIVE VOLUMES      L**3       RATES FOR THIS TIME STEP      L**3/T
     ------------------                 ------------------------

           IN:                                      IN:
           ---                                      ---
        INFILTRATION =  1848100913.1179          INFILTRATION =           4.4075

          OUT:                                     OUT:
          ----                                     ----
              UZF ET =  1491413009.0809                UZF ET =           0.7250
        UZF RECHARGE =    79229179.6332          UZF RECHARGE =       0.0000E+00

            IN - OUT =   277458724.4037              IN - OUT =           3.6825

          STORAGE:                                 STORAGE:
          --------                                 --------
      STORAGE CHANGE =   277459499.8561        STORAGE CHANGE =           3.6825

 PERCENT DISCREPANCY IS DIFFERENCE BETWEEN IN-OUT MINUS CHANGE IN STORAGE
 DIVIDED BY THE AVERAGE OF IN AND OUT TIMES 100

 PERCENT DISCREPANCY =          -0.00     PERCENT DISCREPANCY =           0.00






1
  VOLUMETRIC BUDGET FOR AGRICULTURAL FIELDS AT  END OF TIME STEP   30, STRESS PERIOD  36
  ------------------------------------------------------------------------------

     CUMULATIVE VOLUMES      L**3       RATES FOR THIS TIME STEP      L**3/T
     ------------------                 ------------------------

           IN:                                      IN:
           ---                                      ---
               AG WELLS  =   514772736.0000                 AG WELLS  =           0.0000
      DIVERSION SEGMENTS =   927926528.0000        DIVERSION SEGMENTS =           0.0000
           GW IRRIGATION =           0.0000             GW IRRIGATION =           0.0000
           SW IRRIGATION =           0.0000             SW IRRIGATION =           0.0000
        SYSTEM LOSSES GW =           0.0000          SYSTEM LOSSES GW =           0.0000
        SYSTEM LOSSES SW =           0.0000          SYSTEM LOSSES SW =           0.0000

                TOTAL IN =  1442699264.0000                  TOTAL IN =           0.0000

          OUT:                                     OUT:
          ----                                     ----
               AG WELLS  =           0.0000                 AG WELLS  =           0.0000
      DIVERSION SEGMENTS =           0.0000        DIVERSION SEGMENTS =           0.0000
           GW IRRIGATION =   514772736.0000             GW IRRIGATION =           0.0000
           SW IRRIGATION =   927944192.0000             SW IRRIGATION =           0.0000
        SYSTEM LOSSES GW =           0.0000          SYSTEM LOSSES GW =           0.0000
        SYSTEM LOSSES SW =           0.0000          SYSTEM LOSSES SW =           0.0000

               TOTAL OUT =  1442716928.0000                 TOTAL OUT =           0.0000

                IN - OUT =      -17664.0000                  IN - OUT =           0.0000

     PERCENT DISCREPANCY =          -0.00         PERCENT DISCREPANCY =           0.00



1
  VOLUMETRIC BUDGET FOR ENTIRE MODEL AT END OF TIME STEP   30, STRESS PERIOD  36
  ------------------------------------------------------------------------------

     CUMULATIVE VOLUMES      L**3       RATES FOR THIS TIME STEP      L**3/T
     ------------------                 ------------------------

           IN:                                      IN:
           ---                                      ---
             STORAGE     =   850763008.0000               STORAGE     =           4.2562
       CONSTANT HEAD     =           0.0000         CONSTANT HEAD     =           0.0000
     HEAD DEP BOUNDS     =    26345470.0000       HEAD DEP BOUNDS     =           0.2865
      STREAM LEAKAGE     =  1107716352.0000        STREAM LEAKAGE     =          11.6692
        UZF RECHARGE     =    79229160.0000          UZF RECHARGE     =           0.0000
               GW ET     =           0.0000                 GW ET     =           0.0000
     SURFACE LEAKAGE     =           0.0000       SURFACE LEAKAGE     =           0.0000
           AG WELLS      =           0.0000             AG WELLS      =           0.0000

                TOTAL IN =  2064054016.0000                  TOTAL IN =          16.2120

          OUT:                                     OUT:
          ----                                     ----
             STORAGE     =   534154944.0000               STORAGE     =           5.4331
       CONSTANT HEAD     =           0.0000         CONSTANT HEAD     =           0.0000
     HEAD DEP BOUNDS     =    26786576.0000       HEAD DEP BOUNDS     =           0.2897
      STREAM LEAKAGE     =   985732864.0000        STREAM LEAKAGE     =          10.4895
        UZF RECHARGE     =           0.0000          UZF RECHARGE     =           0.0000
               GW ET     =     2603293.0000                 GW ET     =           0.0000
     SURFACE LEAKAGE     =           0.0000       SURFACE LEAKAGE     =           0.0000
           AG WELLS      =   514772736.0000             AG WELLS      =           0.0000

               TOTAL OUT =  2064050432.0000                 TOTAL OUT =          16.2123

                IN - OUT =        3584.0000                  IN - OUT =      -3.3188E-04

     PERCENT DISCREPANCY =           0.00         PERCENT DISCREPANCY =          -0.00






         TIME SUMMARY AT END OF TIME STEP   30 IN STRESS PERIOD   36
                    SECONDS     MINUTES      HOURS       DAYS        YEARS
                    -----------------------------------------------------------
   TIME STEP LENGTH  87667.      1461.1      24.352      1.0147     2.77799E-03
 STRESS PERIOD TIME 2.63000E+06  43833.      730.56      30.440     8.33397E-02
         TOTAL TIME 9.21360E+07 1.53560E+06  25593.      1066.4      2.9196    
1
1
                            STRESS PERIOD NO.   37, LENGTH =   2630000.    
                            -----------------------------------------------

                              NUMBER OF TIME STEPS =    30

                               MULTIPLIER FOR DELT =     1.000

                            INITIAL TIME STEP SIZE =   87666.66    

 REUSING NON-PARAMETER GHB CELLS FROM LAST STRESS PERIOD

      2 GHB CELLS

 REUSING STREAM SEGMENT DATA FROM LAST STRESS PERIOD



            AREAL INFILTRATION RATE
 READING ON UNIT   19 WITH FORMAT: (10F4.0)            

            1           2           3           4           5           6           7           8           9          10
 ........................................................................................................................
   1   1.2000E-09   0.000       0.000       0.000       0.000       0.000       0.000       0.000       0.000       0.000    
   2   2.1000E-09  2.0000E-09  8.0000E-10  8.5000E-09   0.000       0.000       0.000       0.000       0.000       0.000    
   3   5.0000E-10  1.1000E-09  8.8000E-09  5.5000E-09   0.000       0.000       0.000       0.000       0.000       0.000    
   4   8.5000E-09  1.1000E-09  1.1000E-09  1.1000E-09  2.0000E-09   0.000       0.000       0.000       0.000       0.000    
   5   8.5000E-09  1.1000E-09  1.1000E-09  1.1000E-09  1.1000E-09   0.000       0.000       0.000       0.000       0.000    
   6   8.5000E-09  5.2000E-09  2.1000E-09  1.1000E-09  1.5000E-09   0.000       0.000       0.000       0.000       0.000    
   7   8.5000E-09  5.2000E-09  2.1000E-09  1.2000E-09  2.0000E-09   0.000       0.000       0.000       0.000       0.000    
   8   5.0000E-10  5.2000E-09  2.1000E-09  1.2000E-09  5.0000E-09   0.000       0.000       0.000       0.000       0.000    
   9   5.0000E-10  5.2000E-09  2.1000E-09  1.2000E-09  5.0000E-09   0.000       0.000       0.000       0.000       0.000    
  10   5.0000E-10  5.2000E-09  2.1000E-09  1.2000E-09  5.8000E-09   0.000       0.000       0.000       0.000       0.000    
  11   1.0000E-10  1.1000E-09  1.1000E-09  1.2000E-09  5.0000E-09   0.000       0.000       0.000       0.000       0.000    
  12   1.1000E-09  1.1000E-09  1.1000E-09  1.1000E-09  2.0000E-09   0.000       0.000       0.000       0.000       0.000    
  13   1.1000E-09  2.2000E-09  2.2000E-09  2.1000E-09  1.0000E-09   0.000       0.000       0.000       0.000       0.000    
  14   2.0000E-10  5.5000E-09  5.5000E-09  5.2000E-09  1.0000E-09   0.000       0.000       0.000       0.000       0.000    
  15    0.000      8.8000E-09  8.8000E-09   0.000       0.000       0.000       0.000       0.000       0.000       0.000    

                  ET RATE =  5.000000E-10

 USING ET EXTINCTION DEPTH FROM PREVIOUS STRESS PERIOD. CURRENT PERIOD IS:      37

 USING EXTINCTION WATER CONTENT FROM PREVIOUS STRESS PERIOD. CURRENT PERIOD IS:      37

 USING AIR ENTRY PRESSURE FROM PREVIOUS STRESS PERIOD. CURRENT PERIOD IS:      37

 USING ROOT PRESSURE HEAD FROM PREVIOUS STRESS PERIOD. CURRENT PERIOD IS:      37

 USING ROOT ACTIVITY FROM PREVIOUS STRESS PERIOD. CURRENT PERIOD IS:      37

 PROCESSING AG STRESS PERIOD DATA

 READING AG STRESS PERIOD DATA

 READING IRRIGATION SEGMENT

 READING IRRIGATION WELL

 READING SUPPLEMENTAL WELL

 END PROCESSING AG STRESS PERIOD DATA OPTIONS
 
 SOLVING FOR HEAD 
                                                   Max.-Head-Change                         Max.-Flux-Residual
  Residual-Control   Outer-Iter.   Inner-Iter.     Column Row Layer    Maximum-Head-Change  Column Row Layer    Maximum-Flux-Residual          L2-NORM 
          0                 1           2             3    7     1       0.1325203240E-01       4    5    1         0.6257529418E+00      0.1603218512E+01
          0                 2           2             3    7     1      -0.1289060571E-02       4    5    1        -0.6257598685E-01      0.1603166213E+00
          0                 3           1             3    7     1       0.8778030073E-04       4    5    1         0.4380314414E-02      0.1122160113E-01

    ------------------------------------------------
       NWT REQUIRED            3 OUTER ITERATIONS 
       AND A TOTAL OF          5 INNER ITERATIONS.
    ------------------------------------------------

 NO OUTPUT CONTROL FOR STRESS PERIOD   37   TIME STEP    1
 
 SOLVING FOR HEAD 
                                                   Max.-Head-Change                         Max.-Flux-Residual
  Residual-Control   Outer-Iter.   Inner-Iter.     Column Row Layer    Maximum-Head-Change  Column Row Layer    Maximum-Flux-Residual          L2-NORM 
          0                 1           2             3    7     1       0.1297385207E-01       4    5    1         0.5976861839E+00      0.1555742321E+01
          0                 2           2             3    7     1      -0.1262001232E-02       4    5    1        -0.5976925112E-01      0.1555514972E+00
          0                 3           1             3    7     1       0.8593765707E-04       4    5    1         0.4183843409E-02      0.1088647791E-01

    ------------------------------------------------
       NWT REQUIRED            3 OUTER ITERATIONS 
       AND A TOTAL OF          5 INNER ITERATIONS.
    ------------------------------------------------

 NO OUTPUT CONTROL FOR STRESS PERIOD   37   TIME STEP    2
 
 SOLVING FOR HEAD 
                                                   Max.-Head-Change                         Max.-Flux-Residual
  Residual-Control   Outer-Iter.   Inner-Iter.     Column Row Layer    Maximum-Head-Change  Column Row Layer    Maximum-Flux-Residual          L2-NORM 
          0                 1           2             3    7     1       0.1270166824E-01       4    5    1         0.5711257181E+00      0.1506984875E+01
          0                 2           2             3    7     1      -0.1235525192E-02       4    5    1        -0.5711315010E-01      0.1506781603E+00
          0                 3           1             3    7     1       0.8413473298E-04       4    5    1         0.3997916750E-02      0.1054546687E-01

    ------------------------------------------------
       NWT REQUIRED            3 OUTER ITERATIONS 
       AND A TOTAL OF          5 INNER ITERATIONS.
    ------------------------------------------------

 NO OUTPUT CONTROL FOR STRESS PERIOD   37   TIME STEP    3
 
 SOLVING FOR HEAD 
                                                   Max.-Head-Change                         Max.-Flux-Residual
  Residual-Control   Outer-Iter.   Inner-Iter.     Column Row Layer    Maximum-Head-Change  Column Row Layer    Maximum-Flux-Residual          L2-NORM 
          0                 1           2             3    7     1       0.1243494847E-01       4    5    1         0.5459822241E+00      0.1460557994E+01
          0                 2           2             3    7     1      -0.1209580660E-02       4    5    1        -0.5459875115E-01      0.1460374399E+00
          0                 3           1             3    7     1       0.8236800357E-04       4    5    1         0.3821909245E-02      0.1022096569E-01

    ------------------------------------------------
       NWT REQUIRED            3 OUTER ITERATIONS 
       AND A TOTAL OF          5 INNER ITERATIONS.
    ------------------------------------------------

 NO OUTPUT CONTROL FOR STRESS PERIOD   37   TIME STEP    4
 
 SOLVING FOR HEAD 
                                                   Max.-Head-Change                         Max.-Flux-Residual
  Residual-Control   Outer-Iter.   Inner-Iter.     Column Row Layer    Maximum-Head-Change  Column Row Layer    Maximum-Flux-Residual          L2-NORM 
          0                 1           2             3    7     1       0.1217389789E-01       4    5    1         0.5221874928E+00      0.1416327697E+01
          0                 2           2             3    7     1      -0.1184187587E-02       4    5    1        -0.5221923299E-01      0.1416162812E+00
          0                 3           1             3    7     1       0.8063882581E-04       4    5    1         0.3655343303E-02      0.9911615632E-02

    ------------------------------------------------
       NWT REQUIRED            3 OUTER ITERATIONS 
       AND A TOTAL OF          5 INNER ITERATIONS.
    ------------------------------------------------

 NO OUTPUT CONTROL FOR STRESS PERIOD   37   TIME STEP    5
 
 SOLVING FOR HEAD 
                                                   Max.-Head-Change                         Max.-Flux-Residual
  Residual-Control   Outer-Iter.   Inner-Iter.     Column Row Layer    Maximum-Head-Change  Column Row Layer    Maximum-Flux-Residual          L2-NORM 
          0                 1           2             3    7     1       0.1191869792E-01       4    5    1         0.4996474657E+00      0.1374168043E+01
          0                 2           2             3    7     1      -0.1159363620E-02       4    5    1        -0.4996518927E-01      0.1374019430E+00
          0                 3           1             3    7     1       0.7894840318E-04       4    5    1         0.3497560577E-02      0.9616752313E-02

    ------------------------------------------------
       NWT REQUIRED            3 OUTER ITERATIONS 
       AND A TOTAL OF          5 INNER ITERATIONS.
    ------------------------------------------------

 NO OUTPUT CONTROL FOR STRESS PERIOD   37   TIME STEP    6
 
 SOLVING FOR HEAD 
                                                   Max.-Head-Change                         Max.-Flux-Residual
  Residual-Control   Outer-Iter.   Inner-Iter.     Column Row Layer    Maximum-Head-Change  Column Row Layer    Maximum-Flux-Residual          L2-NORM 
          0                 1           2             3    7     1       0.1166879388E-01       4    5    1         0.4783182987E+00      0.1333967948E+01
          0                 2           2             3    7     1      -0.1135054804E-02       4    5    1        -0.4783223526E-01      0.1333833358E+00
          0                 3           1             3    7     1       0.7729306038E-04       4    5    1         0.3348254056E-02      0.9335543164E-02

    ------------------------------------------------
       NWT REQUIRED            3 OUTER ITERATIONS 
       AND A TOTAL OF          5 INNER ITERATIONS.
    ------------------------------------------------

 NO OUTPUT CONTROL FOR STRESS PERIOD   37   TIME STEP    7
 
 SOLVING FOR HEAD 
                                                   Max.-Head-Change                         Max.-Flux-Residual
  Residual-Control   Outer-Iter.   Inner-Iter.     Column Row Layer    Maximum-Head-Change  Column Row Layer    Maximum-Flux-Residual          L2-NORM 
          0                 1           2             3    7     1       0.1142460891E-01       4    5    1         0.4581146055E+00      0.1295611553E+01
          0                 2           2             3    7     1      -0.1111302297E-02       4    5    1        -0.4581183193E-01      0.1295489899E+00
          0                 3           1             3    7     1       0.7567560033E-04       4    5    1         0.3206826097E-02      0.9067289352E-02

    ------------------------------------------------
       NWT REQUIRED            3 OUTER ITERATIONS 
       AND A TOTAL OF          5 INNER ITERATIONS.
    ------------------------------------------------

 NO OUTPUT CONTROL FOR STRESS PERIOD   37   TIME STEP    8
 
 SOLVING FOR HEAD 
                                                   Max.-Head-Change                         Max.-Flux-Residual
  Residual-Control   Outer-Iter.   Inner-Iter.     Column Row Layer    Maximum-Head-Change  Column Row Layer    Maximum-Flux-Residual          L2-NORM 
          0                 1           2             3    7     1       0.1118581439E-01       4    5    1         0.4389712325E+00      0.1258984418E+01
          0                 2           2             3    7     1      -0.1088074137E-02       4    5    1        -0.4389746366E-01      0.1258873347E+00
          0                 3           1             3    7     1       0.7409384682E-04       4    5    1         0.3072820573E-02      0.8811073755E-02

    ------------------------------------------------
       NWT REQUIRED            3 OUTER ITERATIONS 
       AND A TOTAL OF          5 INNER ITERATIONS.
    ------------------------------------------------

 NO OUTPUT CONTROL FOR STRESS PERIOD   37   TIME STEP    9
 
 SOLVING FOR HEAD 
                                                   Max.-Head-Change                         Max.-Flux-Residual
  Residual-Control   Outer-Iter.   Inner-Iter.     Column Row Layer    Maximum-Head-Change  Column Row Layer    Maximum-Flux-Residual          L2-NORM 
          0                 1           2             3    7     1       0.1095256951E-01       4    5    1         0.4208267039E+00      0.1224007037E+01
          0                 2           2             3    7     1      -0.1065385803E-02       4    5    1        -0.4208298255E-01      0.1223906287E+00
          0                 3           1             3    7     1       0.7254885329E-04       4    5    1         0.2945807094E-02      0.8566381899E-02

    ------------------------------------------------
       NWT REQUIRED            3 OUTER ITERATIONS 
       AND A TOTAL OF          5 INNER ITERATIONS.
    ------------------------------------------------

 NO OUTPUT CONTROL FOR STRESS PERIOD   37   TIME STEP   10
 
 SOLVING FOR HEAD 
                                                   Max.-Head-Change                         Max.-Flux-Residual
  Residual-Control   Outer-Iter.   Inner-Iter.     Column Row Layer    Maximum-Head-Change  Column Row Layer    Maximum-Flux-Residual          L2-NORM 
          0                 1           2             3    7     1       0.1072453664E-01       4    5    1         0.4036378428E+00      0.1190586726E+01
          0                 2           2             3    7     1      -0.1043204457E-02       4    5    1        -0.4036407067E-01      0.1190495676E+00
          0                 3           1             3    7     1       0.7103838447E-04       4    5    1         0.2825483457E-02      0.8332570622E-02

    ------------------------------------------------
       NWT REQUIRED            3 OUTER ITERATIONS 
       AND A TOTAL OF          5 INNER ITERATIONS.
    ------------------------------------------------

 NO OUTPUT CONTROL FOR STRESS PERIOD   37   TIME STEP   11
 
 SOLVING FOR HEAD 
                                                   Max.-Head-Change                         Max.-Flux-Residual
  Residual-Control   Outer-Iter.   Inner-Iter.     Column Row Layer    Maximum-Head-Change  Column Row Layer    Maximum-Flux-Residual          L2-NORM 
          0                 1           2             3    7     1       0.1050186996E-01       4    5    1         0.3873349060E+00      0.1158638522E+01
          0                 2           2             3    7     1      -0.1021545094E-02       4    5    1        -0.3873375349E-01      0.1158556322E+00
          0                 3           1             3    7     1       0.6956346031E-04       4    5    1         0.2711361423E-02      0.8109148078E-02

    ------------------------------------------------
       NWT REQUIRED            3 OUTER ITERATIONS 
       AND A TOTAL OF          5 INNER ITERATIONS.
    ------------------------------------------------

 NO OUTPUT CONTROL FOR STRESS PERIOD   37   TIME STEP   12
 
 SOLVING FOR HEAD 
                                                   Max.-Head-Change                         Max.-Flux-Residual
  Residual-Control   Outer-Iter.   Inner-Iter.     Column Row Layer    Maximum-Head-Change  Column Row Layer    Maximum-Flux-Residual          L2-NORM 
          0                 1           2             3    7     1       0.1028422583E-01       4    5    1         0.3718964535E+00      0.1128087839E+01
          0                 2           2             3    7     1      -0.1000374288E-02       4    5    1        -0.3718988677E-01      0.1128012417E+00
          0                 3           1             3    7     1       0.6812180590E-04       4    5    1         0.2603290921E-02      0.7895402317E-02

    ------------------------------------------------
       NWT REQUIRED            3 OUTER ITERATIONS 
       AND A TOTAL OF          5 INNER ITERATIONS.
    ------------------------------------------------

 NO OUTPUT CONTROL FOR STRESS PERIOD   37   TIME STEP   13
 
 SOLVING FOR HEAD 
                                                   Max.-Head-Change                         Max.-Flux-Residual
  Residual-Control   Outer-Iter.   Inner-Iter.     Column Row Layer    Maximum-Head-Change  Column Row Layer    Maximum-Flux-Residual          L2-NORM 
          0                 1           2             3    7     1       0.1007175178E-01       4    5    1         0.3572439206E+00      0.1098849778E+01
          0                 2           2             3    7     1      -0.9797063896E-03       4    5    1        -0.3572461386E-01      0.1098780278E+00
          0                 3           1             3    7     1       0.6671439740E-04       4    5    1         0.2500721947E-02      0.7690795828E-02

    ------------------------------------------------
       NWT REQUIRED            3 OUTER ITERATIONS 
       AND A TOTAL OF          5 INNER ITERATIONS.
    ------------------------------------------------

 NO OUTPUT CONTROL FOR STRESS PERIOD   37   TIME STEP   14
 
 SOLVING FOR HEAD 
                                                   Max.-Head-Change                         Max.-Flux-Residual
  Residual-Control   Outer-Iter.   Inner-Iter.     Column Row Layer    Maximum-Head-Change  Column Row Layer    Maximum-Flux-Residual          L2-NORM 
          0                 1           2             3    7     1       0.9864587371E-02       4    5    1         0.3433471882E+00      0.1070877890E+01
          0                 2           2             3    7     1      -0.9595549737E-03       4    5    1        -0.3433492270E-01      0.1070814517E+00
          0                 3           1             3    7     1       0.6534215986E-04       4    5    1         0.2403443701E-02      0.7494929543E-02

    ------------------------------------------------
       NWT REQUIRED            3 OUTER ITERATIONS 
       AND A TOTAL OF          5 INNER ITERATIONS.
    ------------------------------------------------

 NO OUTPUT CONTROL FOR STRESS PERIOD   37   TIME STEP   15
 
 SOLVING FOR HEAD 
                                                   Max.-Head-Change                         Max.-Flux-Residual
  Residual-Control   Outer-Iter.   Inner-Iter.     Column Row Layer    Maximum-Head-Change  Column Row Layer    Maximum-Flux-Residual          L2-NORM 
          0                 1           2             3    7     1       0.9662128303E-02       4    5    1         0.3301631250E+00      0.1044086754E+01
          0                 2           2             3    7     1      -0.9398612574E-03       4    5    1        -0.3301649999E-01      0.1044080904E+00
          0                 3           1             3    7     1       0.6400108970E-04       4    5    1         0.2311154215E-02      0.7308040904E-02

    ------------------------------------------------
       NWT REQUIRED            3 OUTER ITERATIONS 
       AND A TOTAL OF          5 INNER ITERATIONS.
    ------------------------------------------------

 NO OUTPUT CONTROL FOR STRESS PERIOD   37   TIME STEP   16
 
 SOLVING FOR HEAD 
                                                   Max.-Head-Change                         Max.-Flux-Residual
  Residual-Control   Outer-Iter.   Inner-Iter.     Column Row Layer    Maximum-Head-Change  Column Row Layer    Maximum-Flux-Residual          L2-NORM 
          0                 1           2             3    7     1       0.9464277593E-02       4    5    1         0.3176662590E+00      0.1018426189E+01
          0                 2           2             3    7     1      -0.9206158088E-03       4    5    1        -0.3176679841E-01      0.1018372903E+00
          0                 3           1             3    7     1       0.6269054554E-04       4    5    1         0.2223675227E-02      0.7128118872E-02

    ------------------------------------------------
       NWT REQUIRED            3 OUTER ITERATIONS 
       AND A TOTAL OF          5 INNER ITERATIONS.
    ------------------------------------------------

 NO OUTPUT CONTROL FOR STRESS PERIOD   37   TIME STEP   17
 
 SOLVING FOR HEAD 
                                                   Max.-Head-Change                         Max.-Flux-Residual
  Residual-Control   Outer-Iter.   Inner-Iter.     Column Row Layer    Maximum-Head-Change  Column Row Layer    Maximum-Flux-Residual          L2-NORM 
          0                 1           2             3    7     1       0.9271422939E-02       4    5    1         0.3058024643E+00      0.9938418493E+00
          0                 2           2             3    7     1      -0.9018563390E-03       4    5    1        -0.3058040524E-01      0.9937933172E-01
          0                 3           1             3    7     1       0.6141309469E-04       4    5    1         0.2140627777E-02      0.6956135380E-02

    ------------------------------------------------
       NWT REQUIRED            3 OUTER ITERATIONS 
       AND A TOTAL OF          5 INNER ITERATIONS.
    ------------------------------------------------

 NO OUTPUT CONTROL FOR STRESS PERIOD   37   TIME STEP   18
 
 SOLVING FOR HEAD 
                                                   Max.-Head-Change                         Max.-Flux-Residual
  Residual-Control   Outer-Iter.   Inner-Iter.     Column Row Layer    Maximum-Head-Change  Column Row Layer    Maximum-Flux-Residual          L2-NORM 
          0                 1           2             3    7     1       0.9083447207E-02       4    5    1         0.2945363004E+00      0.9702756196E+00
          0                 2           2             3    7     1      -0.8835714543E-03       4    5    1        -0.2945377627E-01      0.9702308789E-01
          0                 3           1             3    7     1       0.6016796169E-04       4    5    1         0.2061763836E-02      0.6791235828E-02

    ------------------------------------------------
       NWT REQUIRED            3 OUTER ITERATIONS 
       AND A TOTAL OF          5 INNER ITERATIONS.
    ------------------------------------------------

 NO OUTPUT CONTROL FOR STRESS PERIOD   37   TIME STEP   19
 
 SOLVING FOR HEAD 
                                                   Max.-Head-Change                         Max.-Flux-Residual
  Residual-Control   Outer-Iter.   Inner-Iter.     Column Row Layer    Maximum-Head-Change  Column Row Layer    Maximum-Flux-Residual          L2-NORM 
          0                 1           2             3    7     1       0.8899747812E-02       4    5    1         0.2838491287E+00      0.9476888092E+00
          0                 2           2             3    7     1      -0.8657025390E-03       4    5    1        -0.2838504762E-01      0.9476478070E-01
          0                 3           1             3    7     1       0.5895115447E-04       4    5    1         0.1986952912E-02      0.6633156228E-02

    ------------------------------------------------
       NWT REQUIRED            3 OUTER ITERATIONS 
       AND A TOTAL OF          5 INNER ITERATIONS.
    ------------------------------------------------

 NO OUTPUT CONTROL FOR STRESS PERIOD   37   TIME STEP   20
 
 SOLVING FOR HEAD 
                                                   Max.-Head-Change                         Max.-Flux-Residual
  Residual-Control   Outer-Iter.   Inner-Iter.     Column Row Layer    Maximum-Head-Change  Column Row Layer    Maximum-Flux-Residual          L2-NORM 
          0                 1           2             3    7     1       0.8720711598E-02       4    5    1         0.2736933802E+00      0.9260171705E+00
          0                 2           2             3    7     1      -0.8482872236E-03       4    5    1        -0.2736946222E-01      0.9259792900E-01
          0                 3           1             3    7     1       0.5776523570E-04       4    5    1         0.1915862020E-02      0.6481537424E-02

    ------------------------------------------------
       NWT REQUIRED            3 OUTER ITERATIONS 
       AND A TOTAL OF          5 INNER ITERATIONS.
    ------------------------------------------------

 NO OUTPUT CONTROL FOR STRESS PERIOD   37   TIME STEP   21
 
 SOLVING FOR HEAD 
                                                   Max.-Head-Change                         Max.-Flux-Residual
  Residual-Control   Outer-Iter.   Inner-Iter.     Column Row Layer    Maximum-Head-Change  Column Row Layer    Maximum-Flux-Residual          L2-NORM 
          0                 1           2             3    7     1       0.8545736104E-02       4    5    1         0.2640542308E+00      0.9052342926E+00
          0                 2           2             3    7     1      -0.8312669036E-03       4    5    1        -0.2640553763E-01      0.9051989830E-01
          0                 3           1             3    7     1       0.5660621486E-04       4    5    1         0.1848387350E-02      0.6336075682E-02

    ------------------------------------------------
       NWT REQUIRED            3 OUTER ITERATIONS 
       AND A TOTAL OF          5 INNER ITERATIONS.
    ------------------------------------------------

 NO OUTPUT CONTROL FOR STRESS PERIOD   37   TIME STEP   22
 
 SOLVING FOR HEAD 
                                                   Max.-Head-Change                         Max.-Flux-Residual
  Residual-Control   Outer-Iter.   Inner-Iter.     Column Row Layer    Maximum-Head-Change  Column Row Layer    Maximum-Flux-Residual          L2-NORM 
          0                 1           2             3    7     1       0.8375455894E-02       4    5    1         0.2548880765E+00      0.8852875515E+00
          0                 2           2             3    7     1      -0.8147033068E-03       4    5    1        -0.2548891333E-01      0.8852551052E-01
          0                 3           1             3    7     1       0.5547829537E-04       4    5    1         0.1784223728E-02      0.6196468310E-02

    ------------------------------------------------
       NWT REQUIRED            3 OUTER ITERATIONS 
       AND A TOTAL OF          5 INNER ITERATIONS.
    ------------------------------------------------

 NO OUTPUT CONTROL FOR STRESS PERIOD   37   TIME STEP   23
 
 SOLVING FOR HEAD 
                                                   Max.-Head-Change                         Max.-Flux-Residual
  Residual-Control   Outer-Iter.   Inner-Iter.     Column Row Layer    Maximum-Head-Change  Column Row Layer    Maximum-Flux-Residual          L2-NORM 
          0                 1           2             3    7     1       0.8209265171E-02       4    5    1         0.2461982072E+00      0.8661446408E+00
          0                 2           2             3    7     1      -0.7985375037E-03       4    5    1        -0.2461991829E-01      0.8661143176E-01
          0                 3           1             3    7     1       0.5437746384E-04       4    5    1         0.1723394108E-02      0.6062543388E-02

    ------------------------------------------------
       NWT REQUIRED            3 OUTER ITERATIONS 
       AND A TOTAL OF          5 INNER ITERATIONS.
    ------------------------------------------------

 NO OUTPUT CONTROL FOR STRESS PERIOD   37   TIME STEP   24
 
 SOLVING FOR HEAD 
                                                   Max.-Head-Change                         Max.-Flux-Residual
  Residual-Control   Outer-Iter.   Inner-Iter.     Column Row Layer    Maximum-Head-Change  Column Row Layer    Maximum-Flux-Residual          L2-NORM 
          0                 1           2             3    7     1       0.8047056963E-02       4    5    1         0.2379287204E+00      0.8477737963E+00
          0                 2           2             3    7     1      -0.7827590893E-03       4    5    1        -0.2379296214E-01      0.8477458004E-01
          0                 3           1             3    7     1       0.5330301287E-04       4    5    1         0.1665507208E-02      0.5933954377E-02

    ------------------------------------------------
       NWT REQUIRED            3 OUTER ITERATIONS 
       AND A TOTAL OF          5 INNER ITERATIONS.
    ------------------------------------------------

 NO OUTPUT CONTROL FOR STRESS PERIOD   37   TIME STEP   25
 
 SOLVING FOR HEAD 
                                                   Max.-Head-Change                         Max.-Flux-Residual
  Residual-Control   Outer-Iter.   Inner-Iter.     Column Row Layer    Maximum-Head-Change  Column Row Layer    Maximum-Flux-Residual          L2-NORM 
          0                 1           2             3    7     1       0.7888972650E-02       4    5    1         0.2300710744E+00      0.8301238092E+00
          0                 2           2             3    7     1      -0.7673818171E-03       4    5    1        -0.2300719070E-01      0.8300969246E-01
          0                 3           1             3    7     1       0.5225587754E-04       4    5    1         0.1610503252E-02      0.5810421496E-02

    ------------------------------------------------
       NWT REQUIRED            3 OUTER ITERATIONS 
       AND A TOTAL OF          5 INNER ITERATIONS.
    ------------------------------------------------

 NO OUTPUT CONTROL FOR STRESS PERIOD   37   TIME STEP   26
 
 SOLVING FOR HEAD 
                                                   Max.-Head-Change                         Max.-Flux-Residual
  Residual-Control   Outer-Iter.   Inner-Iter.     Column Row Layer    Maximum-Head-Change  Column Row Layer    Maximum-Flux-Residual          L2-NORM 
          0                 1           2             3    7     1       0.7734662095E-02       4    5    1         0.2226025055E+00      0.8131784299E+00
          0                 2           2             3    7     1      -0.7523716275E-03       4    5    1        -0.2226032750E-01      0.8131542057E-01
          0                 3           1             3    7     1       0.5123373952E-04       4    5    1         0.1558222878E-02      0.5691879364E-02

    ------------------------------------------------
       NWT REQUIRED            3 OUTER ITERATIONS 
       AND A TOTAL OF          5 INNER ITERATIONS.
    ------------------------------------------------

 NO OUTPUT CONTROL FOR STRESS PERIOD   37   TIME STEP   27
 
 SOLVING FOR HEAD 
                                                   Max.-Head-Change                         Max.-Flux-Residual
  Residual-Control   Outer-Iter.   Inner-Iter.     Column Row Layer    Maximum-Head-Change  Column Row Layer    Maximum-Flux-Residual          L2-NORM 
          0                 1           2             3    7     1       0.7584511354E-02       4    5    1         0.2155017757E+00      0.7969078175E+00
          0                 2           2             3    7     1      -0.7377660725E-03       4    5    1        -0.2155024874E-01      0.7968847791E-01
          0                 3           1             3    7     1       0.5023915572E-04       4    5    1         0.1508517390E-02      0.5577984544E-02

    ------------------------------------------------
       NWT REQUIRED            3 OUTER ITERATIONS 
       AND A TOTAL OF          5 INNER ITERATIONS.
    ------------------------------------------------

 NO OUTPUT CONTROL FOR STRESS PERIOD   37   TIME STEP   28
 
 SOLVING FOR HEAD 
                                                   Max.-Head-Change                         Max.-Flux-Residual
  Residual-Control   Outer-Iter.   Inner-Iter.     Column Row Layer    Maximum-Head-Change  Column Row Layer    Maximum-Flux-Residual          L2-NORM 
          0                 1           2             3    7     1       0.7437919893E-02       4    5    1         0.2087488716E+00      0.7812605506E+00
          0                 2           2             3    7     1      -0.7235067384E-03       4    5    1        -0.2087495302E-01      0.7812387246E-01
          0                 3           1             3    7     1       0.4926814859E-04       4    5    1         0.1461246716E-02      0.5468457040E-02

    ------------------------------------------------
       NWT REQUIRED            3 OUTER ITERATIONS 
       AND A TOTAL OF          5 INNER ITERATIONS.
    ------------------------------------------------

 NO OUTPUT CONTROL FOR STRESS PERIOD   37   TIME STEP   29
 
 SOLVING FOR HEAD 
                                                   Max.-Head-Change                         Max.-Flux-Residual
  Residual-Control   Outer-Iter.   Inner-Iter.     Column Row Layer    Maximum-Head-Change  Column Row Layer    Maximum-Flux-Residual          L2-NORM 
          0                 1           2             3    7     1       0.7294791026E-02       4    5    1         0.2023246517E+00      0.7662219803E+00
          0                 2           2             3    7     1      -0.7095842188E-03       4    5    1        -0.2023252614E-01      0.7662021510E-01
          0                 3           1             3    7     1       0.4832007653E-04       4    5    1         0.1416276863E-02      0.5363229883E-02

    ------------------------------------------------
       NWT REQUIRED            3 OUTER ITERATIONS 
       AND A TOTAL OF          5 INNER ITERATIONS.
    ------------------------------------------------

 NO OUTPUT CONTROL FOR STRESS PERIOD   37   TIME STEP   30



 STREAM LISTING     PERIOD     37   STEP       30

 LAYER ROW COL. STREAM  RCH.  FLOW INTO     FLOW TO   FLOW OUT OF   OVRLND.     DIRECT     STREAM       STREAM     STREAM     STREAM   STREAMBED  STREAMBED
                SEG.NO.  NO.  STRM. RCH.    AQUIFER    STRM. RCH.    RUNOFF     PRECIP       ET          HEAD       DEPTH      WIDTH   CONDCTNC.   GRADIENT

   1    1    1     1     1    1.7249E+01  2.0269E-01   1.7047E+01  0.000E+00  0.000E+00  0.000E+00  1.09410E+03  1.052E+00  1.112E+01  5.002E-02  1.351E+00
   1    2    2     1     2    1.7047E+01  3.1257E-01   1.6734E+01  0.000E+00  0.000E+00  0.000E+00  1.08911E+03  1.047E+00  1.103E+01  7.723E-02  1.349E+00
   1    3    3     1     3    1.6734E+01  2.6529E-01   1.6469E+01  0.000E+00  0.000E+00  0.000E+00  1.08346E+03  1.042E+00  1.094E+01  6.563E-02  1.347E+00
   1    3    4     1     4    1.6469E+01  2.4324E-01   1.6226E+01  0.000E+00  0.000E+00  0.000E+00  1.07845E+03  1.038E+00  1.085E+01  6.024E-02  1.346E+00
   1    4    5     2     1    1.4226E+01  3.0073E-01   1.3925E+01  0.000E+00  0.000E+00  0.000E+00  1.07279E+03  8.555E-01  1.200E+01  7.800E-02  1.285E+00
   1    5    6     2     2    1.3925E+01  2.3075E-01   1.3694E+01  0.000E+00  0.000E+00  0.000E+00  1.06736E+03  8.458E-01  1.200E+01  6.000E-02  1.282E+00
   1    6    6     2     3    1.3694E+01  2.3024E-01   1.3464E+01  0.000E+00  0.000E+00  0.000E+00  1.06263E+03  8.373E-01  1.200E+01  6.000E-02  1.279E+00
   1    7    6     2     4    1.3464E+01  2.2972E-01   1.3234E+01  0.000E+00  0.000E+00  0.000E+00  1.05790E+03  8.287E-01  1.200E+01  6.000E-02  1.276E+00
   1    8    6     2     5    1.3234E+01  2.2921E-01   1.3005E+01  0.000E+00  0.000E+00  0.000E+00  1.05318E+03  8.202E-01  1.200E+01  6.000E-02  1.273E+00
   1    3    5     3     1    2.0000E+00  2.8252E-01   1.7175E+00  0.000E+00  0.000E+00  0.000E+00  1.07555E+03  1.909E+00  9.636E+00  7.227E-02  1.955E+00
   1    3    6     3     2    1.7175E+00  2.4905E-01   1.4684E+00  0.000E+00  0.000E+00  0.000E+00  1.07264E+03  1.727E+00  8.909E+00  6.682E-02  1.864E+00
   1    3    7     3     3    1.4684E+00  1.9718E-01   1.2712E+00  0.000E+00  0.000E+00  0.000E+00  1.06987E+03  1.555E+00  8.218E+00  5.547E-02  1.777E+00
   1    4    8     3     4    1.2712E+00  2.2567E-01   1.0456E+00  0.000E+00  0.000E+00  0.000E+00  1.06682E+03  1.364E+00  7.455E+00  6.709E-02  1.682E+00
   1    5    8     3     5    1.0456E+00  1.5790E-01   8.8768E-01  0.000E+00  0.000E+00  0.000E+00  1.06362E+03  1.164E+00  6.655E+00  4.991E-02  1.582E+00
   1    6    8     3     6    8.8768E-01  5.5980E-02   8.3170E-01  0.000E+00  0.000E+00  0.000E+00  1.06158E+03  1.036E+00  6.145E+00  1.844E-02  1.518E+00
   1    5   10     4     1    1.0000E+01  9.0919E-02   9.9091E+00  0.000E+00  0.000E+00  0.000E+00  1.07836E+03  6.368E-01  1.000E+01  2.500E-02  1.212E+00
   1    5    9     4     2    9.9091E+00  1.8158E-01   9.7275E+00  0.000E+00  0.000E+00  0.000E+00  1.07154E+03  6.315E-01  1.000E+01  5.000E-02  1.211E+00
   1    6    8     4     3    9.7275E+00  1.2689E-01   9.6006E+00  0.000E+00  0.000E+00  0.000E+00  1.06381E+03  6.256E-01  1.000E+01  3.500E-02  1.209E+00
   1    6    8     5     1    1.0432E+01  2.2686E-01   1.0205E+01  0.000E+00  0.000E+00  0.000E+00  1.05868E+03  6.790E-01  1.542E+01  6.166E-02  1.226E+00
   1    7    7     5     2    1.0205E+01  2.7894E-01   9.9265E+00  0.000E+00  0.000E+00  0.000E+00  1.05417E+03  6.732E-01  1.519E+01  7.594E-02  1.224E+00
   1    8    7     5     3    9.9265E+00  1.9221E-01   9.7343E+00  0.000E+00  0.000E+00  0.000E+00  1.04992E+03  6.676E-01  1.497E+01  5.241E-02  1.223E+00
   1    8    6     5     4    9.7343E+00  1.3577E-01   9.5985E+00  0.000E+00  0.000E+00  0.000E+00  1.04691E+03  6.637E-01  1.482E+01  3.706E-02  1.221E+00
   1    9    6     6     1    2.2604E+01  2.4874E-01   2.2355E+01  0.000E+00  0.000E+00  0.000E+00  1.04387E+03  1.146E+00  1.200E+01  6.000E-02  1.382E+00
   1   10    7     6     2    2.2355E+01  2.4828E-01   2.2107E+01  0.000E+00  0.000E+00  0.000E+00  1.03932E+03  1.138E+00  1.200E+01  6.000E-02  1.379E+00
   1   11    7     6     3    2.2107E+01  2.4782E-01   2.1859E+01  0.000E+00  0.000E+00  0.000E+00  1.03477E+03  1.130E+00  1.200E+01  6.000E-02  1.377E+00
   1   12    7     6     4    2.1859E+01  2.4736E-01   2.1611E+01  0.000E+00  0.000E+00  0.000E+00  1.03021E+03  1.123E+00  1.200E+01  6.000E-02  1.374E+00
   1   13    7     6     5    2.1611E+01  1.7345E-03   2.1610E+01  0.000E+00  0.000E+00  0.000E+00  1.02703E+03  1.119E+00  1.200E+01  2.400E-02  2.409E-02
   1   14    9     7     1    1.5000E+02  1.3482E+00   1.4865E+02  0.000E+00  0.000E+00  0.000E+00  1.03987E+03  2.288E+00  5.529E+01  5.593E-01  8.035E-01
   1   13    8     7     2    1.4865E+02  1.8727E+00   1.4678E+02  0.000E+00  0.000E+00  0.000E+00  1.03478E+03  2.279E+00  5.526E+01  6.148E-01  1.015E+00
   1   13    7     7     3    1.4678E+02  1.5266E+00   1.4525E+02  0.000E+00  0.000E+00  0.000E+00  1.02969E+03  2.270E+00  5.522E+01  5.584E-01  9.112E-01
   1   13    6     8     1    1.6686E+02  9.5854E-01   1.6590E+02  0.000E+00  0.000E+00  0.000E+00  1.02480E+03  2.928E+00  4.246E+01  4.327E-01  7.384E-01
   1   13    5     8     2    1.6590E+02  2.0946E-01   1.6569E+02  0.000E+00  0.000E+00  0.000E+00  1.01855E+03  2.925E+00  4.241E+01  4.321E-01  1.616E-01
   1   13    4     8     3    1.6569E+02 -2.3245E+00   1.6802E+02  0.000E+00  0.000E+00  0.000E+00  1.01231E+03  2.932E+00  4.251E+01  4.332E+00 -1.789E-01
   1   13    3     8     4    1.6802E+02 -3.5902E+00   1.7161E+02  0.000E+00  0.000E+00  0.000E+00  1.00608E+03  2.951E+00  4.279E+01  4.360E+00 -2.745E-01
   1   13    2     8     5    1.7161E+02 -2.5647E+00   1.7417E+02  0.000E+00  0.000E+00  0.000E+00  9.99846E+02  2.971E+00  4.308E+01  4.390E+00 -1.947E-01
   1   13    1     8     6    1.7417E+02 -1.9846E+00   1.7616E+02  0.000E+00  0.000E+00  0.000E+00  9.94861E+02  2.986E+00  4.329E+01  2.647E+00 -2.499E-01
   1    8    6     9     1    0.0000E+00  0.0000E+00   0.0000E+00  0.000E+00  0.000E+00  0.000E+00  1.07875E+03  0.000E+00  4.000E+00  0.000E+00  1.000E+00
   1    8    5     9     2    0.0000E+00  0.0000E+00   0.0000E+00  0.000E+00  0.000E+00  0.000E+00  1.07825E+03  0.000E+00  4.000E+00  0.000E+00  1.000E+00





UNSATURATED ZONE PACKAGE VOLUMETRIC BUDGET FOR  TIME STEP    30 STRESS PERIOD   37
  ------------------------------------------------------------------------------



     CUMULATIVE VOLUMES      L**3       RATES FOR THIS TIME STEP      L**3/T
     ------------------                 ------------------------

           IN:                                      IN:
           ---                                      ---
        INFILTRATION =  1859692637.6760          INFILTRATION =           4.4075

          OUT:                                     OUT:
          ----                                     ----
              UZF ET =  1493319758.9592                UZF ET =           0.7250
        UZF RECHARGE =    79229179.6332          UZF RECHARGE =       0.0000E+00

            IN - OUT =   287143699.0836              IN - OUT =           3.6825

          STORAGE:                                 STORAGE:
          --------                                 --------
      STORAGE CHANGE =   287144474.4709        STORAGE CHANGE =           3.6825

 PERCENT DISCREPANCY IS DIFFERENCE BETWEEN IN-OUT MINUS CHANGE IN STORAGE
 DIVIDED BY THE AVERAGE OF IN AND OUT TIMES 100

 PERCENT DISCREPANCY =          -0.00     PERCENT DISCREPANCY =           0.00






1
  VOLUMETRIC BUDGET FOR AGRICULTURAL FIELDS AT  END OF TIME STEP   30, STRESS PERIOD  37
  ------------------------------------------------------------------------------

     CUMULATIVE VOLUMES      L**3       RATES FOR THIS TIME STEP      L**3/T
     ------------------                 ------------------------

           IN:                                      IN:
           ---                                      ---
               AG WELLS  =   514772736.0000                 AG WELLS  =           0.0000
      DIVERSION SEGMENTS =   927926528.0000        DIVERSION SEGMENTS =           0.0000
           GW IRRIGATION =           0.0000             GW IRRIGATION =           0.0000
           SW IRRIGATION =           0.0000             SW IRRIGATION =           0.0000
        SYSTEM LOSSES GW =           0.0000          SYSTEM LOSSES GW =           0.0000
        SYSTEM LOSSES SW =           0.0000          SYSTEM LOSSES SW =           0.0000

                TOTAL IN =  1442699264.0000                  TOTAL IN =           0.0000

          OUT:                                     OUT:
          ----                                     ----
               AG WELLS  =           0.0000                 AG WELLS  =           0.0000
      DIVERSION SEGMENTS =           0.0000        DIVERSION SEGMENTS =           0.0000
           GW IRRIGATION =   514772736.0000             GW IRRIGATION =           0.0000
           SW IRRIGATION =   927944192.0000             SW IRRIGATION =           0.0000
        SYSTEM LOSSES GW =           0.0000          SYSTEM LOSSES GW =           0.0000
        SYSTEM LOSSES SW =           0.0000          SYSTEM LOSSES SW =           0.0000

               TOTAL OUT =  1442716928.0000                 TOTAL OUT =           0.0000

                IN - OUT =      -17664.0000                  IN - OUT =           0.0000

     PERCENT DISCREPANCY =          -0.00         PERCENT DISCREPANCY =           0.00



1
  VOLUMETRIC BUDGET FOR ENTIRE MODEL AT END OF TIME STEP   30, STRESS PERIOD  37
  ------------------------------------------------------------------------------

     CUMULATIVE VOLUMES      L**3       RATES FOR THIS TIME STEP      L**3/T
     ------------------                 ------------------------

           IN:                                      IN:
           ---                                      ---
             STORAGE     =   859064896.0000               STORAGE     =           2.2468
       CONSTANT HEAD     =           0.0000         CONSTANT HEAD     =           0.0000
     HEAD DEP BOUNDS     =    27099160.0000       HEAD DEP BOUNDS     =           0.2866
      STREAM LEAKAGE     =  1138089472.0000        STREAM LEAKAGE     =          11.5553
        UZF RECHARGE     =    79229160.0000          UZF RECHARGE     =           0.0000
               GW ET     =           0.0000                 GW ET     =           0.0000
     SURFACE LEAKAGE     =           0.0000       SURFACE LEAKAGE     =           0.0000
           AG WELLS      =           0.0000             AG WELLS      =           0.0000

                TOTAL IN =  2103482624.0000                  TOTAL IN =          14.0888

          OUT:                                     OUT:
          ----                                     ----
             STORAGE     =   545144256.0000               STORAGE     =           3.3359
       CONSTANT HEAD     =           0.0000         CONSTANT HEAD     =           0.0000
     HEAD DEP BOUNDS     =    27547634.0000       HEAD DEP BOUNDS     =           0.2892
      STREAM LEAKAGE     =  1013412224.0000        STREAM LEAKAGE     =          10.4640
        UZF RECHARGE     =           0.0000          UZF RECHARGE     =           0.0000
               GW ET     =     2603293.0000                 GW ET     =           0.0000
     SURFACE LEAKAGE     =           0.0000       SURFACE LEAKAGE     =           0.0000
           AG WELLS      =   514772736.0000             AG WELLS      =           0.0000

               TOTAL OUT =  2103480064.0000                 TOTAL OUT =          14.0891

                IN - OUT =        2560.0000                  IN - OUT =      -3.0804E-04

     PERCENT DISCREPANCY =           0.00         PERCENT DISCREPANCY =          -0.00






         TIME SUMMARY AT END OF TIME STEP   30 IN STRESS PERIOD   37
                    SECONDS     MINUTES      HOURS       DAYS        YEARS
                    -----------------------------------------------------------
   TIME STEP LENGTH  87667.      1461.1      24.352      1.0147     2.77799E-03
 STRESS PERIOD TIME 2.63000E+06  43833.      730.56      30.440     8.33397E-02
         TOTAL TIME 9.47660E+07 1.57943E+06  26324.      1096.8      3.0030    
1
1
                            STRESS PERIOD NO.   38, LENGTH =   2630000.    
                            -----------------------------------------------

                              NUMBER OF TIME STEPS =    30

                               MULTIPLIER FOR DELT =     1.000

                            INITIAL TIME STEP SIZE =   87666.66    

 REUSING NON-PARAMETER GHB CELLS FROM LAST STRESS PERIOD

      2 GHB CELLS

 REUSING STREAM SEGMENT DATA FROM LAST STRESS PERIOD



            AREAL INFILTRATION RATE
 READING ON UNIT   19 WITH FORMAT: (10F4.0)            

            1           2           3           4           5           6           7           8           9          10
 ........................................................................................................................
   1   1.2000E-09   0.000       0.000       0.000       0.000       0.000       0.000       0.000       0.000       0.000    
   2   2.1000E-09  2.0000E-09  8.0000E-10  8.5000E-09   0.000       0.000       0.000       0.000       0.000       0.000    
   3   5.0000E-10  1.1000E-09  8.8000E-09  5.5000E-09   0.000       0.000       0.000       0.000       0.000       0.000    
   4   8.5000E-09  1.1000E-09  1.1000E-09  1.1000E-09  2.0000E-09   0.000       0.000       0.000       0.000       0.000    
   5   8.5000E-09  1.1000E-09  1.1000E-09  1.1000E-09  1.1000E-09   0.000       0.000       0.000       0.000       0.000    
   6   8.5000E-09  5.2000E-09  2.1000E-09  1.1000E-09  1.5000E-09   0.000       0.000       0.000       0.000       0.000    
   7   8.5000E-09  5.2000E-09  2.1000E-09  1.2000E-09  2.0000E-09   0.000       0.000       0.000       0.000       0.000    
   8   5.0000E-10  5.2000E-09  2.1000E-09  1.2000E-09  5.0000E-09   0.000       0.000       0.000       0.000       0.000    
   9   5.0000E-10  5.2000E-09  2.1000E-09  1.2000E-09  5.0000E-09   0.000       0.000       0.000       0.000       0.000    
  10   5.0000E-10  5.2000E-09  2.1000E-09  1.2000E-09  5.8000E-09   0.000       0.000       0.000       0.000       0.000    
  11   1.0000E-10  1.1000E-09  1.1000E-09  1.2000E-09  5.0000E-09   0.000       0.000       0.000       0.000       0.000    
  12   1.1000E-09  1.1000E-09  1.1000E-09  1.1000E-09  2.0000E-09   0.000       0.000       0.000       0.000       0.000    
  13   1.1000E-09  2.2000E-09  2.2000E-09  2.1000E-09  1.0000E-09   0.000       0.000       0.000       0.000       0.000    
  14   2.0000E-10  5.5000E-09  5.5000E-09  5.2000E-09  1.0000E-09   0.000       0.000       0.000       0.000       0.000    
  15    0.000      8.8000E-09  8.8000E-09   0.000       0.000       0.000       0.000       0.000       0.000       0.000    

                  ET RATE =  5.000000E-10

 USING ET EXTINCTION DEPTH FROM PREVIOUS STRESS PERIOD. CURRENT PERIOD IS:      38

 USING EXTINCTION WATER CONTENT FROM PREVIOUS STRESS PERIOD. CURRENT PERIOD IS:      38

 USING AIR ENTRY PRESSURE FROM PREVIOUS STRESS PERIOD. CURRENT PERIOD IS:      38

 USING ROOT PRESSURE HEAD FROM PREVIOUS STRESS PERIOD. CURRENT PERIOD IS:      38

 USING ROOT ACTIVITY FROM PREVIOUS STRESS PERIOD. CURRENT PERIOD IS:      38

 PROCESSING AG STRESS PERIOD DATA

 READING AG STRESS PERIOD DATA

 READING IRRIGATION SEGMENT

 READING IRRIGATION WELL

 READING SUPPLEMENTAL WELL

 END PROCESSING AG STRESS PERIOD DATA OPTIONS
 
 SOLVING FOR HEAD 
                                                   Max.-Head-Change                         Max.-Flux-Residual
  Residual-Control   Outer-Iter.   Inner-Iter.     Column Row Layer    Maximum-Head-Change  Column Row Layer    Maximum-Flux-Residual          L2-NORM 
          0                 1           2             3    7     1       0.7155521220E-02       4    5    1         0.1962110392E+00      0.7517664440E+00
          0                 2           2             3    7     1      -0.6960370801E-03       4    5    1        -0.1962116039E-01      0.7517473140E-01
          0                 3           1             3    7     1       0.4739756731E-04       4    5    1         0.1373481297E-02      0.5262046480E-02

    ------------------------------------------------
       NWT REQUIRED            3 OUTER ITERATIONS 
       AND A TOTAL OF          5 INNER ITERATIONS.
    ------------------------------------------------

 NO OUTPUT CONTROL FOR STRESS PERIOD   38   TIME STEP    1
 
 SOLVING FOR HEAD 
                                                   Max.-Head-Change                         Max.-Flux-Residual
  Residual-Control   Outer-Iter.   Inner-Iter.     Column Row Layer    Maximum-Head-Change  Column Row Layer    Maximum-Flux-Residual          L2-NORM 
          0                 1           2             3    7     1       0.7019756819E-02       4    5    1         0.1903912391E+00      0.7427516306E+00
          0                 2           2             3    7     1      -0.6828309201E-03       4    5    1        -0.1903917628E-01      0.7425455895E-01
          0                 3           1             3    7     1       0.4649827680E-04       4    5    1         0.1332742429E-02      0.5195452683E-02

    ------------------------------------------------
       NWT REQUIRED            3 OUTER ITERATIONS 
       AND A TOTAL OF          5 INNER ITERATIONS.
    ------------------------------------------------

 NO OUTPUT CONTROL FOR STRESS PERIOD   38   TIME STEP    2
 
 SOLVING FOR HEAD 
                                                   Max.-Head-Change                         Max.-Flux-Residual
  Residual-Control   Outer-Iter.   Inner-Iter.     Column Row Layer    Maximum-Head-Change  Column Row Layer    Maximum-Flux-Residual          L2-NORM 
          0                 1           2             3    7     1       0.6887157956E-02       4    5    1         0.1848454429E+00      0.7398093429E+00
          0                 2           2             3    7     1      -0.6699326803E-03       4    5    1        -0.1848459283E-01      0.7394510431E-01
          0                 3           1             3    7     1       0.4561995531E-04       4    5    1         0.1293921598E-02      0.5172750941E-02

    ------------------------------------------------
       NWT REQUIRED            3 OUTER ITERATIONS 
       AND A TOTAL OF          5 INNER ITERATIONS.
    ------------------------------------------------

 NO OUTPUT CONTROL FOR STRESS PERIOD   38   TIME STEP    3
 
 SOLVING FOR HEAD 
                                                   Max.-Head-Change                         Max.-Flux-Residual
  Residual-Control   Outer-Iter.   Inner-Iter.     Column Row Layer    Maximum-Head-Change  Column Row Layer    Maximum-Flux-Residual          L2-NORM 
          0                 1           2             3    7     1       0.6757876897E-02       4    5    1         0.1795698982E+00      0.7258365630E+00
          0                 2           2             3    7     1      -0.6573571711E-03       4    5    1        -0.1795703488E-01      0.7253057718E-01
          0                 3           1             3    7     1       0.4476361035E-04       4    5    1         0.1256992573E-02      0.5072288498E-02

    ------------------------------------------------
       NWT REQUIRED            3 OUTER ITERATIONS 
       AND A TOTAL OF          5 INNER ITERATIONS.
    ------------------------------------------------

 NO OUTPUT CONTROL FOR STRESS PERIOD   38   TIME STEP    4
 
 SOLVING FOR HEAD 
                                                   Max.-Head-Change                         Max.-Flux-Residual
  Residual-Control   Outer-Iter.   Inner-Iter.     Column Row Layer    Maximum-Head-Change  Column Row Layer    Maximum-Flux-Residual          L2-NORM 
          0                 1           2             3    7     1       0.6632309252E-02       3    7    1         0.1758584363E+00      0.7124228613E+00
          0                 2           2             3    7     1      -0.6451428752E-03       3    7    1        -0.1758584500E-01      0.7119525810E-01
          0                 3           1             3    7     1       0.4393186237E-04       3    7    1         0.1231009674E-02      0.4979555143E-02

    ------------------------------------------------
       NWT REQUIRED            3 OUTER ITERATIONS 
       AND A TOTAL OF          5 INNER ITERATIONS.
    ------------------------------------------------

 NO OUTPUT CONTROL FOR STRESS PERIOD   38   TIME STEP    5
 
 SOLVING FOR HEAD 
                                                   Max.-Head-Change                         Max.-Flux-Residual
  Residual-Control   Outer-Iter.   Inner-Iter.     Column Row Layer    Maximum-Head-Change  Column Row Layer    Maximum-Flux-Residual          L2-NORM 
          0                 1           2             3    7     1       0.6509373951E-02       3    7    1         0.1725771375E+00      0.6996033576E+00
          0                 2           2             3    7     1      -0.6331846334E-03       3    7    1        -0.1725771549E-01      0.6991865134E-01
          0                 3           1             3    7     1       0.4311755058E-04       3    7    1         0.1208040590E-02      0.4890416953E-02

    ------------------------------------------------
       NWT REQUIRED            3 OUTER ITERATIONS 
       AND A TOTAL OF          5 INNER ITERATIONS.
    ------------------------------------------------

 NO OUTPUT CONTROL FOR STRESS PERIOD   38   TIME STEP    6
 
 SOLVING FOR HEAD 
                                                   Max.-Head-Change                         Max.-Flux-Residual
  Residual-Control   Outer-Iter.   Inner-Iter.     Column Row Layer    Maximum-Head-Change  Column Row Layer    Maximum-Flux-Residual          L2-NORM 
          0                 1           2             3    7     1       0.6389972774E-02       3    7    1         0.1693901197E+00      0.6873447182E+00
          0                 2           2             3    7     1      -0.6215701653E-03       3    7    1        -0.1693901407E-01      0.6869754534E-01
          0                 3           1             3    7     1       0.4232664863E-04       3    7    1         0.1185731477E-02      0.4805398670E-02

    ------------------------------------------------
       NWT REQUIRED            3 OUTER ITERATIONS 
       AND A TOTAL OF          5 INNER ITERATIONS.
    ------------------------------------------------

 NO OUTPUT CONTROL FOR STRESS PERIOD   38   TIME STEP    7
 
 SOLVING FOR HEAD 
                                                   Max.-Head-Change                         Max.-Flux-Residual
  Residual-Control   Outer-Iter.   Inner-Iter.     Column Row Layer    Maximum-Head-Change  Column Row Layer    Maximum-Flux-Residual          L2-NORM 
          0                 1           2             3    7     1       0.6273026074E-02       3    7    1         0.1662686815E+00      0.6756024229E+00
          0                 2           2             3    7     1      -0.6101944501E-03       3    7    1        -0.1662687057E-01      0.6752745208E-01
          0                 3           1             3    7     1       0.4155200446E-04       3    7    1         0.1163881414E-02      0.4724105445E-02

    ------------------------------------------------
       NWT REQUIRED            3 OUTER ITERATIONS 
       AND A TOTAL OF          5 INNER ITERATIONS.
    ------------------------------------------------

 NO OUTPUT CONTROL FOR STRESS PERIOD   38   TIME STEP    8
 
 SOLVING FOR HEAD 
                                                   Max.-Head-Change                         Max.-Flux-Residual
  Residual-Control   Outer-Iter.   Inner-Iter.     Column Row Layer    Maximum-Head-Change  Column Row Layer    Maximum-Flux-Residual          L2-NORM 
          0                 1           2             3    7     1       0.6159439701E-02       3    7    1         0.1632369141E+00      0.6643689024E+00
          0                 2           2             3    7     1      -0.5991456021E-03       3    7    1        -0.1632369413E-01      0.6640767437E-01
          0                 3           1             3    7     1       0.4079961990E-04       3    7    1         0.1142659058E-02      0.4645871120E-02

    ------------------------------------------------
       NWT REQUIRED            3 OUTER ITERATIONS 
       AND A TOTAL OF          5 INNER ITERATIONS.
    ------------------------------------------------

 NO OUTPUT CONTROL FOR STRESS PERIOD   38   TIME STEP    9
 
 SOLVING FOR HEAD 
                                                   Max.-Head-Change                         Max.-Flux-Residual
  Residual-Control   Outer-Iter.   Inner-Iter.     Column Row Layer    Maximum-Head-Change  Column Row Layer    Maximum-Flux-Residual          L2-NORM 
          0                 1           2             3    7     1       0.6048627747E-02       3    7    1         0.1602792405E+00      0.6535910499E+00
          0                 2           2             3    7     1      -0.5883666285E-03       3    7    1        -0.1602792703E-01      0.6533298137E-01
          0                 3           1             3    7     1       0.4006561206E-04       3    7    1         0.1121955352E-02      0.4570786898E-02

    ------------------------------------------------
       NWT REQUIRED            3 OUTER ITERATIONS 
       AND A TOTAL OF          5 INNER ITERATIONS.
    ------------------------------------------------

 NO OUTPUT CONTROL FOR STRESS PERIOD   38   TIME STEP   10
 
 SOLVING FOR HEAD 
                                                   Max.-Head-Change                         Max.-Flux-Residual
  Residual-Control   Outer-Iter.   Inner-Iter.     Column Row Layer    Maximum-Head-Change  Column Row Layer    Maximum-Flux-Residual          L2-NORM 
          0                 1           2             3    7     1       0.5940508753E-02       3    7    1         0.1573934916E+00      0.6432514585E+00
          0                 2           2             3    7     1      -0.5778496063E-03       3    7    1        -0.1573935239E-01      0.6430180815E-01
          0                 3           1             3    7     1       0.3934944205E-04       3    7    1         0.1101755117E-02      0.4498993993E-02

    ------------------------------------------------
       NWT REQUIRED            3 OUTER ITERATIONS 
       AND A TOTAL OF          5 INNER ITERATIONS.
    ------------------------------------------------

 NO OUTPUT CONTROL FOR STRESS PERIOD   38   TIME STEP   11
 
 SOLVING FOR HEAD 
                                                   Max.-Head-Change                         Max.-Flux-Residual
  Residual-Control   Outer-Iter.   Inner-Iter.     Column Row Layer    Maximum-Head-Change  Column Row Layer    Maximum-Flux-Residual          L2-NORM 
          0                 1           2             3    7     1       0.5835004115E-02       3    7    1         0.1545775556E+00      0.6333292705E+00
          0                 2           2             3    7     1      -0.5675868893E-03       3    7    1        -0.1545775904E-01      0.6331209675E-01
          0                 3           1             3    7     1       0.3865058919E-04       3    7    1         0.1082043568E-02      0.4429931705E-02

    ------------------------------------------------
       NWT REQUIRED            3 OUTER ITERATIONS 
       AND A TOTAL OF          5 INNER ITERATIONS.
    ------------------------------------------------

 NO OUTPUT CONTROL FOR STRESS PERIOD   38   TIME STEP   12
 
 SOLVING FOR HEAD 
                                                   Max.-Head-Change                         Max.-Flux-Residual
  Residual-Control   Outer-Iter.   Inner-Iter.     Column Row Layer    Maximum-Head-Change  Column Row Layer    Maximum-Flux-Residual          L2-NORM 
          0                 1           2             3    7     1       0.5732526606E-02       3    7    1         0.1518424159E+00      0.6238077205E+00
          0                 2           2             3    7     1      -0.5576186282E-03       3    7    1        -0.1518424529E-01      0.6236215486E-01
          0                 3           1             3    7     1       0.3797178777E-04       3    7    1         0.1062897591E-02      0.4363646632E-02

    ------------------------------------------------
       NWT REQUIRED            3 OUTER ITERATIONS 
       AND A TOTAL OF          5 INNER ITERATIONS.
    ------------------------------------------------

 NO OUTPUT CONTROL FOR STRESS PERIOD   38   TIME STEP   13
 
 SOLVING FOR HEAD 
                                                   Max.-Head-Change                         Max.-Flux-Residual
  Residual-Control   Outer-Iter.   Inner-Iter.     Column Row Layer    Maximum-Head-Change  Column Row Layer    Maximum-Flux-Residual          L2-NORM 
          0                 1           2             3    7     1       0.5632009168E-02       3    7    1         0.1491597100E+00      0.6146480107E+00
          0                 2           2             3    7     1      -0.5478410283E-03       3    7    1        -0.1491597489E-01      0.6144820218E-01
          0                 3           1             3    7     1       0.3730597000E-04       3    7    1         0.1044118656E-02      0.4299860430E-02

    ------------------------------------------------
       NWT REQUIRED            3 OUTER ITERATIONS 
       AND A TOTAL OF          5 INNER ITERATIONS.
    ------------------------------------------------

 NO OUTPUT CONTROL FOR STRESS PERIOD   38   TIME STEP   14
 
 SOLVING FOR HEAD 
                                                   Max.-Head-Change                         Max.-Flux-Residual
  Residual-Control   Outer-Iter.   Inner-Iter.     Column Row Layer    Maximum-Head-Change  Column Row Layer    Maximum-Flux-Residual          L2-NORM 
          0                 1           2             3    7     1       0.5534367233E-02       3    7    1         0.1465538601E+00      0.6058391825E+00
          0                 2           2             3    7     1      -0.5383431360E-03       3    7    1        -0.1465539007E-01      0.6056894096E-01
          0                 3           1             3    7     1       0.3665919875E-04       3    7    1         0.1025877713E-02      0.4238526513E-02

    ------------------------------------------------
       NWT REQUIRED            3 OUTER ITERATIONS 
       AND A TOTAL OF          5 INNER ITERATIONS.
    ------------------------------------------------

 NO OUTPUT CONTROL FOR STRESS PERIOD   38   TIME STEP   15
 
 SOLVING FOR HEAD 
                                                   Max.-Head-Change                         Max.-Flux-Residual
  Residual-Control   Outer-Iter.   Inner-Iter.     Column Row Layer    Maximum-Head-Change  Column Row Layer    Maximum-Flux-Residual          L2-NORM 
          0                 1           2             3    7     1       0.5439519846E-02       3    7    1         0.1440225557E+00      0.5973783075E+00
          0                 2           2             3    7     1      -0.5291170763E-03       3    7    1        -0.1440225980E-01      0.5972428634E-01
          0                 3           1             3    7     1       0.3603093866E-04       3    7    1         0.1008158584E-02      0.4179456549E-02

    ------------------------------------------------
       NWT REQUIRED            3 OUTER ITERATIONS 
       AND A TOTAL OF          5 INNER ITERATIONS.
    ------------------------------------------------

 NO OUTPUT CONTROL FOR STRESS PERIOD   38   TIME STEP   16
 
 SOLVING FOR HEAD 
                                                   Max.-Head-Change                         Max.-Flux-Residual
  Residual-Control   Outer-Iter.   Inner-Iter.     Column Row Layer    Maximum-Head-Change  Column Row Layer    Maximum-Flux-Residual          L2-NORM 
          0                 1           2             3    7     1       0.5346407422E-02       3    7    1         0.1415376546E+00      0.5892407299E+00
          0                 2           2             3    7     1      -0.5200597810E-03       3    7    1        -0.1415376983E-01      0.5891193085E-01
          0                 3           1             3    7     1       0.3541417072E-04       3    7    1         0.9907642774E-03      0.4122585552E-02

    ------------------------------------------------
       NWT REQUIRED            3 OUTER ITERATIONS 
       AND A TOTAL OF          5 INNER ITERATIONS.
    ------------------------------------------------

 NO OUTPUT CONTROL FOR STRESS PERIOD   38   TIME STEP   17
 
 SOLVING FOR HEAD 
                                                   Max.-Head-Change                         Max.-Flux-Residual
  Residual-Control   Outer-Iter.   Inner-Iter.     Column Row Layer    Maximum-Head-Change  Column Row Layer    Maximum-Flux-Residual          L2-NORM 
          0                 1           2             3    7     1       0.5255951050E-02       3    7    1         0.1391237746E+00      0.5813966143E+00
          0                 2           2             3    7     1      -0.5112608468E-03       3    7    1        -0.1391238199E-01      0.5812884815E-01
          0                 3           1             3    7     1       0.3481499588E-04       3    7    1         0.9738671122E-03      0.4068100097E-02

    ------------------------------------------------
       NWT REQUIRED            3 OUTER ITERATIONS 
       AND A TOTAL OF          5 INNER ITERATIONS.
    ------------------------------------------------

 NO OUTPUT CONTROL FOR STRESS PERIOD   38   TIME STEP   18
 
 SOLVING FOR HEAD 
                                                   Max.-Head-Change                         Max.-Flux-Residual
  Residual-Control   Outer-Iter.   Inner-Iter.     Column Row Layer    Maximum-Head-Change  Column Row Layer    Maximum-Flux-Residual          L2-NORM 
          0                 1           2             3    7     1       0.5167585355E-02       3    7    1         0.1367657290E+00      0.5738484003E+00
          0                 2           2             3    7     1      -0.5026652778E-03       3    7    1        -0.1367657754E-01      0.5737492088E-01
          0                 3           1             3    7     1       0.3422966951E-04       3    7    1         0.9573607934E-03      0.4015260905E-02

    ------------------------------------------------
       NWT REQUIRED            3 OUTER ITERATIONS 
       AND A TOTAL OF          5 INNER ITERATIONS.
    ------------------------------------------------

 NO OUTPUT CONTROL FOR STRESS PERIOD   38   TIME STEP   19
 
 SOLVING FOR HEAD 
                                                   Max.-Head-Change                         Max.-Flux-Residual
  Residual-Control   Outer-Iter.   Inner-Iter.     Column Row Layer    Maximum-Head-Change  Column Row Layer    Maximum-Flux-Residual          L2-NORM 
          0                 1           2             3    7     1       0.5081736738E-02       3    7    1         0.1344749048E+00      0.5665751266E+00
          0                 2           2             3    7     1      -0.4943145512E-03       3    7    1        -0.1344749522E-01      0.5664857270E-01
          0                 3           1             3    7     1       0.3366101630E-04       3    7    1         0.9413250266E-03      0.3964601723E-02

    ------------------------------------------------
       NWT REQUIRED            3 OUTER ITERATIONS 
       AND A TOTAL OF          5 INNER ITERATIONS.
    ------------------------------------------------

 NO OUTPUT CONTROL FOR STRESS PERIOD   38   TIME STEP   20
 
 SOLVING FOR HEAD 
                                                   Max.-Head-Change                         Max.-Flux-Residual
  Residual-Control   Outer-Iter.   Inner-Iter.     Column Row Layer    Maximum-Head-Change  Column Row Layer    Maximum-Flux-Residual          L2-NORM 
          0                 1           2             3    7     1       0.4997352142E-02       3    7    1         0.1322232894E+00      0.5595698328E+00
          0                 2           2             3    7     1      -0.4861062339E-03       3    7    1        -0.1322233377E-01      0.5594893412E-01
          0                 3           1             3    7     1       0.3310206077E-04       3    7    1         0.9255637196E-03      0.3915676063E-02

    ------------------------------------------------
       NWT REQUIRED            3 OUTER ITERATIONS 
       AND A TOTAL OF          5 INNER ITERATIONS.
    ------------------------------------------------

 NO OUTPUT CONTROL FOR STRESS PERIOD   38   TIME STEP   21
 
 SOLVING FOR HEAD 
                                                   Max.-Head-Change                         Max.-Flux-Residual
  Residual-Control   Outer-Iter.   Inner-Iter.     Column Row Layer    Maximum-Head-Change  Column Row Layer    Maximum-Flux-Residual          L2-NORM 
          0                 1           2             3    7     1       0.4915848111E-02       3    7    1         0.1300486951E+00      0.5528230251E+00
          0                 2           2             3    7     1      -0.4781781168E-03       3    7    1        -0.1300487444E-01      0.5527488323E-01
          0                 3           1             3    7     1       0.3256218537E-04       3    7    1         0.9103415562E-03      0.3868558711E-02

    ------------------------------------------------
       NWT REQUIRED            3 OUTER ITERATIONS 
       AND A TOTAL OF          5 INNER ITERATIONS.
    ------------------------------------------------

 NO OUTPUT CONTROL FOR STRESS PERIOD   38   TIME STEP   22
 
 SOLVING FOR HEAD 
                                                   Max.-Head-Change                         Max.-Flux-Residual
  Residual-Control   Outer-Iter.   Inner-Iter.     Column Row Layer    Maximum-Head-Change  Column Row Layer    Maximum-Flux-Residual          L2-NORM 
          0                 1           2             3    7     1       0.4835680458E-02       3    7    1         0.1279097095E+00      0.5463037538E+00
          0                 2           2             3    7     1      -0.4703799923E-03       3    7    1        -0.1279097594E-01      0.5462372745E-01
          0                 3           1             3    7     1       0.3203116203E-04       3    7    1         0.8953686563E-03      0.3823170571E-02

    ------------------------------------------------
       NWT REQUIRED            3 OUTER ITERATIONS 
       AND A TOTAL OF          5 INNER ITERATIONS.
    ------------------------------------------------

 NO OUTPUT CONTROL FOR STRESS PERIOD   38   TIME STEP   23
 
 SOLVING FOR HEAD 
                                                   Max.-Head-Change                         Max.-Flux-Residual
  Residual-Control   Outer-Iter.   Inner-Iter.     Column Row Layer    Maximum-Head-Change  Column Row Layer    Maximum-Flux-Residual          L2-NORM 
          0                 1           2             3    7     1       0.4757778480E-02       3    7    1         0.1258314141E+00      0.5400349119E+00
          0                 2           2             3    7     1      -0.4628022556E-03       3    7    1        -0.1258314645E-01      0.5399741154E-01
          0                 3           1             3    7     1       0.3151514661E-04       3    7    1         0.8808205864E-03      0.3779179488E-02

    ------------------------------------------------
       NWT REQUIRED            3 OUTER ITERATIONS 
       AND A TOTAL OF          5 INNER ITERATIONS.
    ------------------------------------------------

 NO OUTPUT CONTROL FOR STRESS PERIOD   38   TIME STEP   24
 
 SOLVING FOR HEAD 
                                                   Max.-Head-Change                         Max.-Flux-Residual
  Residual-Control   Outer-Iter.   Inner-Iter.     Column Row Layer    Maximum-Head-Change  Column Row Layer    Maximum-Flux-Residual          L2-NORM 
          0                 1           2             3    7     1       0.4682079627E-02       3    7    1         0.1238118548E+00      0.5339755307E+00
          0                 2           2             3    7     1      -0.4554388234E-03       3    7    1        -0.1238119059E-01      0.5339192105E-01
          0                 3           1             3    7     1       0.3101372375E-04       3    7    1         0.8666836646E-03      0.3736893481E-02

    ------------------------------------------------
       NWT REQUIRED            3 OUTER ITERATIONS 
       AND A TOTAL OF          5 INNER ITERATIONS.
    ------------------------------------------------

 NO OUTPUT CONTROL FOR STRESS PERIOD   38   TIME STEP   25
 
 SOLVING FOR HEAD 
                                                   Max.-Head-Change                         Max.-Flux-Residual
  Residual-Control   Outer-Iter.   Inner-Iter.     Column Row Layer    Maximum-Head-Change  Column Row Layer    Maximum-Flux-Residual          L2-NORM 
          0                 1           2             3    7     1       0.4608026026E-02       3    7    1         0.1218363869E+00      0.5281327469E+00
          0                 2           2             3    7     1      -0.4482354283E-03       3    7    1        -0.1218364384E-01      0.5280817068E-01
          0                 3           1             3    7     1       0.3052319946E-04       3    7    1         0.8528553864E-03      0.3696074346E-02

    ------------------------------------------------
       NWT REQUIRED            3 OUTER ITERATIONS 
       AND A TOTAL OF          5 INNER ITERATIONS.
    ------------------------------------------------

 NO OUTPUT CONTROL FOR STRESS PERIOD   38   TIME STEP   26
 
 SOLVING FOR HEAD 
                                                   Max.-Head-Change                         Max.-Flux-Residual
  Residual-Control   Outer-Iter.   Inner-Iter.     Column Row Layer    Maximum-Head-Change  Column Row Layer    Maximum-Flux-Residual          L2-NORM 
          0                 1           2             3    7     1       0.4535567791E-02       3    7    1         0.1199035709E+00      0.5224856256E+00
          0                 2           2             3    7     1      -0.4411872192E-03       3    7    1        -0.1199036227E-01      0.5224391773E-01
          0                 3           1             3    7     1       0.3004324239E-04       3    7    1         0.8393256738E-03      0.3656643358E-02

    ------------------------------------------------
       NWT REQUIRED            3 OUTER ITERATIONS 
       AND A TOTAL OF          5 INNER ITERATIONS.
    ------------------------------------------------

 NO OUTPUT CONTROL FOR STRESS PERIOD   38   TIME STEP   27
 
 SOLVING FOR HEAD 
                                                   Max.-Head-Change                         Max.-Flux-Residual
  Residual-Control   Outer-Iter.   Inner-Iter.     Column Row Layer    Maximum-Head-Change  Column Row Layer    Maximum-Flux-Residual          L2-NORM 
          0                 1           2             3    7     1       0.4465147629E-02       3    7    1         0.1180251370E+00      0.5170473655E+00
          0                 2           2             3    7     1      -0.4343372585E-03       3    7    1        -0.1180251891E-01      0.5170046318E-01
          0                 3           1             3    7     1       0.2957678588E-04       3    7    1         0.8261766289E-03      0.3618620020E-02

    ------------------------------------------------
       NWT REQUIRED            3 OUTER ITERATIONS 
       AND A TOTAL OF          5 INNER ITERATIONS.
    ------------------------------------------------

 NO OUTPUT CONTROL FOR STRESS PERIOD   38   TIME STEP   28
 
 SOLVING FOR HEAD 
                                                   Max.-Head-Change                         Max.-Flux-Residual
  Residual-Control   Outer-Iter.   Inner-Iter.     Column Row Layer    Maximum-Head-Change  Column Row Layer    Maximum-Flux-Residual          L2-NORM 
          0                 1           2             3    7     1       0.4396212711E-02       3    7    1         0.1161865151E+00      0.5117822729E+00
          0                 2           2             3    7     1      -0.4276317714E-03       3    7    1        -0.1161865675E-01      0.5117428281E-01
          0                 3           1             3    7     1       0.2912016670E-04       3    7    1         0.8133062722E-03      0.3581883388E-02

    ------------------------------------------------
       NWT REQUIRED            3 OUTER ITERATIONS 
       AND A TOTAL OF          5 INNER ITERATIONS.
    ------------------------------------------------

 NO OUTPUT CONTROL FOR STRESS PERIOD   38   TIME STEP   29
 
 SOLVING FOR HEAD 
                                                   Max.-Head-Change                         Max.-Flux-Residual
  Residual-Control   Outer-Iter.   Inner-Iter.     Column Row Layer    Maximum-Head-Change  Column Row Layer    Maximum-Flux-Residual          L2-NORM 
          0                 1           2             3    7     1       0.4329201919E-02       3    7    1         0.1143994209E+00      0.5067077400E+00
          0                 2           2             3    7     1      -0.4211134492E-03       3    7    1        -0.1143994734E-01      0.5066715736E-01
          0                 3           1             3    7     1       0.2867629331E-04       3    7    1         0.8007966132E-03      0.3546399584E-02

    ------------------------------------------------
       NWT REQUIRED            3 OUTER ITERATIONS 
       AND A TOTAL OF          5 INNER ITERATIONS.
    ------------------------------------------------

 NO OUTPUT CONTROL FOR STRESS PERIOD   38   TIME STEP   30



 STREAM LISTING     PERIOD     38   STEP       30

 LAYER ROW COL. STREAM  RCH.  FLOW INTO     FLOW TO   FLOW OUT OF   OVRLND.     DIRECT     STREAM       STREAM     STREAM     STREAM   STREAMBED  STREAMBED
                SEG.NO.  NO.  STRM. RCH.    AQUIFER    STRM. RCH.    RUNOFF     PRECIP       ET          HEAD       DEPTH      WIDTH   CONDCTNC.   GRADIENT

   1    1    1     1     1    1.4250E+01  1.8168E-01   1.4068E+01  0.000E+00  0.000E+00  0.000E+00  1.09404E+03  9.953E-01  1.011E+01  4.547E-02  1.332E+00
   1    2    2     1     2    1.4068E+01  2.7999E-01   1.3788E+01  0.000E+00  0.000E+00  0.000E+00  1.08905E+03  9.906E-01  1.002E+01  7.016E-02  1.330E+00
   1    3    3     1     3    1.3788E+01  2.3744E-01   1.3550E+01  0.000E+00  0.000E+00  0.000E+00  1.08340E+03  9.852E-01  9.930E+00  5.958E-02  1.328E+00
   1    3    4     1     4    1.3550E+01  2.1755E-01   1.3333E+01  0.000E+00  0.000E+00  0.000E+00  1.07839E+03  9.805E-01  9.847E+00  5.465E-02  1.327E+00
   1    4    5     2     1    1.1333E+01  2.9214E-01   1.1041E+01  0.000E+00  0.000E+00  0.000E+00  1.07268E+03  7.454E-01  1.200E+01  7.800E-02  1.248E+00
   1    5    6     2     2    1.1041E+01  2.2410E-01   1.0817E+01  0.000E+00  0.000E+00  0.000E+00  1.06724E+03  7.350E-01  1.200E+01  6.000E-02  1.245E+00
   1    6    6     2     3    1.0817E+01  2.2356E-01   1.0593E+01  0.000E+00  0.000E+00  0.000E+00  1.06252E+03  7.259E-01  1.200E+01  6.000E-02  1.242E+00
   1    7    6     2     4    1.0593E+01  2.2301E-01   1.0370E+01  0.000E+00  0.000E+00  0.000E+00  1.05779E+03  7.168E-01  1.200E+01  6.000E-02  1.239E+00
   1    8    6     2     5    1.0370E+01  2.2246E-01   1.0148E+01  0.000E+00  0.000E+00  0.000E+00  1.05307E+03  7.076E-01  1.200E+01  6.000E-02  1.236E+00
   1    3    5     3     1    2.0000E+00  2.8252E-01   1.7175E+00  0.000E+00  0.000E+00  0.000E+00  1.07555E+03  1.909E+00  9.636E+00  7.227E-02  1.955E+00
   1    3    6     3     2    1.7175E+00  2.4905E-01   1.4684E+00  0.000E+00  0.000E+00  0.000E+00  1.07264E+03  1.727E+00  8.909E+00  6.682E-02  1.864E+00
   1    3    7     3     3    1.4684E+00  1.9718E-01   1.2712E+00  0.000E+00  0.000E+00  0.000E+00  1.06987E+03  1.555E+00  8.218E+00  5.547E-02  1.777E+00
   1    4    8     3     4    1.2712E+00  2.2567E-01   1.0456E+00  0.000E+00  0.000E+00  0.000E+00  1.06682E+03  1.364E+00  7.455E+00  6.709E-02  1.682E+00
   1    5    8     3     5    1.0456E+00  1.5790E-01   8.8768E-01  0.000E+00  0.000E+00  0.000E+00  1.06362E+03  1.164E+00  6.655E+00  4.991E-02  1.582E+00
   1    6    8     3     6    8.8768E-01  5.5980E-02   8.3170E-01  0.000E+00  0.000E+00  0.000E+00  1.06158E+03  1.036E+00  6.145E+00  1.844E-02  1.518E+00
   1    5   10     4     1    1.0000E+01  9.0919E-02   9.9091E+00  0.000E+00  0.000E+00  0.000E+00  1.07836E+03  6.368E-01  1.000E+01  2.500E-02  1.212E+00
   1    5    9     4     2    9.9091E+00  1.8158E-01   9.7275E+00  0.000E+00  0.000E+00  0.000E+00  1.07154E+03  6.315E-01  1.000E+01  5.000E-02  1.211E+00
   1    6    8     4     3    9.7275E+00  1.2689E-01   9.6006E+00  0.000E+00  0.000E+00  0.000E+00  1.06381E+03  6.256E-01  1.000E+01  3.500E-02  1.209E+00
   1    6    8     5     1    1.0432E+01  2.2686E-01   1.0205E+01  0.000E+00  0.000E+00  0.000E+00  1.05868E+03  6.790E-01  1.542E+01  6.166E-02  1.226E+00
   1    7    7     5     2    1.0205E+01  2.7894E-01   9.9265E+00  0.000E+00  0.000E+00  0.000E+00  1.05417E+03  6.732E-01  1.519E+01  7.594E-02  1.224E+00
   1    8    7     5     3    9.9265E+00  1.9221E-01   9.7343E+00  0.000E+00  0.000E+00  0.000E+00  1.04992E+03  6.676E-01  1.497E+01  5.241E-02  1.223E+00
   1    8    6     5     4    9.7343E+00  1.3577E-01   9.5985E+00  0.000E+00  0.000E+00  0.000E+00  1.04691E+03  6.637E-01  1.482E+01  3.706E-02  1.221E+00
   1    9    6     6     1    1.9746E+01  2.4336E-01   1.9503E+01  0.000E+00  0.000E+00  0.000E+00  1.04378E+03  1.056E+00  1.200E+01  6.000E-02  1.352E+00
   1   10    7     6     2    1.9503E+01  2.4289E-01   1.9260E+01  0.000E+00  0.000E+00  0.000E+00  1.03923E+03  1.048E+00  1.200E+01  6.000E-02  1.349E+00
   1   11    7     6     3    1.9260E+01  2.4241E-01   1.9018E+01  0.000E+00  0.000E+00  0.000E+00  1.03468E+03  1.040E+00  1.200E+01  6.000E-02  1.347E+00
   1   12    7     6     4    1.9018E+01  2.4194E-01   1.8776E+01  0.000E+00  0.000E+00  0.000E+00  1.03012E+03  1.032E+00  1.200E+01  6.000E-02  1.344E+00
   1   13    7     6     5    1.8776E+01 -1.8685E-03   1.8777E+01  0.000E+00  0.000E+00  0.000E+00  1.02694E+03  1.028E+00  1.200E+01  2.400E-01 -2.595E-03
   1   14    9     7     1    1.5000E+02  1.3490E+00   1.4865E+02  0.000E+00  0.000E+00  0.000E+00  1.03987E+03  2.288E+00  5.529E+01  5.593E-01  8.040E-01
   1   13    8     7     2    1.4865E+02  1.8752E+00   1.4678E+02  0.000E+00  0.000E+00  0.000E+00  1.03478E+03  2.279E+00  5.526E+01  6.148E-01  1.017E+00
   1   13    7     7     3    1.4678E+02  1.5324E+00   1.4524E+02  0.000E+00  0.000E+00  0.000E+00  1.02969E+03  2.270E+00  5.522E+01  5.584E-01  9.147E-01
   1   13    6     8     1    1.6402E+02  9.5106E-01   1.6307E+02  0.000E+00  0.000E+00  0.000E+00  1.02478E+03  2.910E+00  4.219E+01  4.299E-01  7.374E-01
   1   13    5     8     2    1.6307E+02  2.0602E-01   1.6286E+02  0.000E+00  0.000E+00  0.000E+00  1.01853E+03  2.906E+00  4.213E+01  4.294E-01  1.599E-01
   1   13    4     8     3    1.6286E+02 -2.3310E+00   1.6519E+02  0.000E+00  0.000E+00  0.000E+00  1.01229E+03  2.913E+00  4.224E+01  4.304E+00 -1.805E-01
   1   13    3     8     4    1.6519E+02 -3.5913E+00   1.6879E+02  0.000E+00  0.000E+00  0.000E+00  1.00606E+03  2.932E+00  4.252E+01  4.333E+00 -2.763E-01
   1   13    2     8     5    1.6879E+02 -2.5675E+00   1.7135E+02  0.000E+00  0.000E+00  0.000E+00  9.99828E+02  2.953E+00  4.281E+01  4.363E+00 -1.962E-01
   1   13    1     8     6    1.7135E+02 -1.9861E+00   1.7334E+02  0.000E+00  0.000E+00  0.000E+00  9.94842E+02  2.967E+00  4.303E+01  2.631E+00 -2.516E-01
   1    8    6     9     1    0.0000E+00  0.0000E+00   0.0000E+00  0.000E+00  0.000E+00  0.000E+00  1.07875E+03  0.000E+00  4.000E+00  0.000E+00  1.000E+00
   1    8    5     9     2    0.0000E+00  0.0000E+00   0.0000E+00  0.000E+00  0.000E+00  0.000E+00  1.07825E+03  0.000E+00  4.000E+00  0.000E+00  1.000E+00





UNSATURATED ZONE PACKAGE VOLUMETRIC BUDGET FOR  TIME STEP    30 STRESS PERIOD   38
  ------------------------------------------------------------------------------



     CUMULATIVE VOLUMES      L**3       RATES FOR THIS TIME STEP      L**3/T
     ------------------                 ------------------------

           IN:                                      IN:
           ---                                      ---
        INFILTRATION =  1871284362.2341          INFILTRATION =           4.4075

          OUT:                                     OUT:
          ----                                     ----
              UZF ET =  1495226522.7034                UZF ET =           0.7250
        UZF RECHARGE =    79229179.6332          UZF RECHARGE =       0.0000E+00

            IN - OUT =   296828659.8975              IN - OUT =           3.6825

          STORAGE:                                 STORAGE:
          --------                                 --------
      STORAGE CHANGE =   296829435.2158        STORAGE CHANGE =           3.6825

 PERCENT DISCREPANCY IS DIFFERENCE BETWEEN IN-OUT MINUS CHANGE IN STORAGE
 DIVIDED BY THE AVERAGE OF IN AND OUT TIMES 100

 PERCENT DISCREPANCY =          -0.00     PERCENT DISCREPANCY =           0.00






1
  VOLUMETRIC BUDGET FOR AGRICULTURAL FIELDS AT  END OF TIME STEP   30, STRESS PERIOD  38
  ------------------------------------------------------------------------------

     CUMULATIVE VOLUMES      L**3       RATES FOR THIS TIME STEP      L**3/T
     ------------------                 ------------------------

           IN:                                      IN:
           ---                                      ---
               AG WELLS  =   514772736.0000                 AG WELLS  =           0.0000
      DIVERSION SEGMENTS =   927926528.0000        DIVERSION SEGMENTS =           0.0000
           GW IRRIGATION =           0.0000             GW IRRIGATION =           0.0000
           SW IRRIGATION =           0.0000             SW IRRIGATION =           0.0000
        SYSTEM LOSSES GW =           0.0000          SYSTEM LOSSES GW =           0.0000
        SYSTEM LOSSES SW =           0.0000          SYSTEM LOSSES SW =           0.0000

                TOTAL IN =  1442699264.0000                  TOTAL IN =           0.0000

          OUT:                                     OUT:
          ----                                     ----
               AG WELLS  =           0.0000                 AG WELLS  =           0.0000
      DIVERSION SEGMENTS =           0.0000        DIVERSION SEGMENTS =           0.0000
           GW IRRIGATION =   514772736.0000             GW IRRIGATION =           0.0000
           SW IRRIGATION =   927944192.0000             SW IRRIGATION =           0.0000
        SYSTEM LOSSES GW =           0.0000          SYSTEM LOSSES GW =           0.0000
        SYSTEM LOSSES SW =           0.0000          SYSTEM LOSSES SW =           0.0000

               TOTAL OUT =  1442716928.0000                 TOTAL OUT =           0.0000

                IN - OUT =      -17664.0000                  IN - OUT =           0.0000

     PERCENT DISCREPANCY =          -0.00         PERCENT DISCREPANCY =           0.00



1
  VOLUMETRIC BUDGET FOR ENTIRE MODEL AT END OF TIME STEP   30, STRESS PERIOD  38
  ------------------------------------------------------------------------------

     CUMULATIVE VOLUMES      L**3       RATES FOR THIS TIME STEP      L**3/T
     ------------------                 ------------------------

           IN:                                      IN:
           ---                                      ---
             STORAGE     =   864179648.0000               STORAGE     =           1.5364
       CONSTANT HEAD     =           0.0000         CONSTANT HEAD     =           0.0000
     HEAD DEP BOUNDS     =    27852994.0000       HEAD DEP BOUNDS     =           0.2867
      STREAM LEAKAGE     =  1168037888.0000        STREAM LEAKAGE     =          11.3876
        UZF RECHARGE     =    79229160.0000          UZF RECHARGE     =           0.0000
               GW ET     =           0.0000                 GW ET     =           0.0000
     SURFACE LEAKAGE     =           0.0000       SURFACE LEAKAGE     =           0.0000
           AG WELLS      =           0.0000             AG WELLS      =           0.0000

                TOTAL IN =  2139299712.0000                  TOTAL IN =          13.2107

          OUT:                                     OUT:
          ----                                     ----
             STORAGE     =   552481472.0000               STORAGE     =           2.4445
       CONSTANT HEAD     =           0.0000         CONSTANT HEAD     =           0.0000
     HEAD DEP BOUNDS     =    28307444.0000       HEAD DEP BOUNDS     =           0.2887
      STREAM LEAKAGE     =  1041132864.0000        STREAM LEAKAGE     =          10.4778
        UZF RECHARGE     =           0.0000          UZF RECHARGE     =           0.0000
               GW ET     =     2603293.0000                 GW ET     =           0.0000
     SURFACE LEAKAGE     =           0.0000       SURFACE LEAKAGE     =           0.0000
           AG WELLS      =   514772736.0000             AG WELLS      =           0.0000

               TOTAL OUT =  2139297792.0000                 TOTAL OUT =          13.2109

                IN - OUT =        1920.0000                  IN - OUT =      -2.5558E-04

     PERCENT DISCREPANCY =           0.00         PERCENT DISCREPANCY =          -0.00






         TIME SUMMARY AT END OF TIME STEP   30 IN STRESS PERIOD   38
                    SECONDS     MINUTES      HOURS       DAYS        YEARS
                    -----------------------------------------------------------
   TIME STEP LENGTH  87667.      1461.1      24.352      1.0147     2.77799E-03
 STRESS PERIOD TIME 2.63000E+06  43833.      730.56      30.440     8.33397E-02
         TOTAL TIME 9.73959E+07 1.62326E+06  27054.      1127.3      3.0863    
1
1
                            STRESS PERIOD NO.   39, LENGTH =   2630000.    
                            -----------------------------------------------

                              NUMBER OF TIME STEPS =    30

                               MULTIPLIER FOR DELT =     1.000

                            INITIAL TIME STEP SIZE =   87666.66    

 REUSING NON-PARAMETER GHB CELLS FROM LAST STRESS PERIOD

      2 GHB CELLS

 REUSING STREAM SEGMENT DATA FROM LAST STRESS PERIOD



            AREAL INFILTRATION RATE
 READING ON UNIT   19 WITH FORMAT: (10F4.0)            

            1           2           3           4           5           6           7           8           9          10
 ........................................................................................................................
   1   1.2000E-09   0.000       0.000       0.000       0.000       0.000       0.000       0.000       0.000       0.000    
   2   2.1000E-09  2.0000E-09  8.0000E-10  8.5000E-09   0.000       0.000       0.000       0.000       0.000       0.000    
   3   5.0000E-10  1.1000E-09  8.8000E-09  5.5000E-09   0.000       0.000       0.000       0.000       0.000       0.000    
   4   8.5000E-09  1.1000E-09  1.1000E-09  1.1000E-09  2.0000E-09   0.000       0.000       0.000       0.000       0.000    
   5   8.5000E-09  1.1000E-09  1.1000E-09  1.1000E-09  1.1000E-09   0.000       0.000       0.000       0.000       0.000    
   6   8.5000E-09  5.2000E-09  2.1000E-09  1.1000E-09  1.5000E-09   0.000       0.000       0.000       0.000       0.000    
   7   8.5000E-09  5.2000E-09  2.1000E-09  1.2000E-09  2.0000E-09   0.000       0.000       0.000       0.000       0.000    
   8   5.0000E-10  5.2000E-09  2.1000E-09  1.2000E-09  5.0000E-09   0.000       0.000       0.000       0.000       0.000    
   9   5.0000E-10  5.2000E-09  2.1000E-09  1.2000E-09  5.0000E-09   0.000       0.000       0.000       0.000       0.000    
  10   5.0000E-10  5.2000E-09  2.1000E-09  1.2000E-09  5.8000E-09   0.000       0.000       0.000       0.000       0.000    
  11   1.0000E-10  1.1000E-09  1.1000E-09  1.2000E-09  5.0000E-09   0.000       0.000       0.000       0.000       0.000    
  12   1.1000E-09  1.1000E-09  1.1000E-09  1.1000E-09  2.0000E-09   0.000       0.000       0.000       0.000       0.000    
  13   1.1000E-09  2.2000E-09  2.2000E-09  2.1000E-09  1.0000E-09   0.000       0.000       0.000       0.000       0.000    
  14   2.0000E-10  5.5000E-09  5.5000E-09  5.2000E-09  1.0000E-09   0.000       0.000       0.000       0.000       0.000    
  15    0.000      8.8000E-09  8.8000E-09   0.000       0.000       0.000       0.000       0.000       0.000       0.000    

                  ET RATE =  5.000000E-10

 USING ET EXTINCTION DEPTH FROM PREVIOUS STRESS PERIOD. CURRENT PERIOD IS:      39

 USING EXTINCTION WATER CONTENT FROM PREVIOUS STRESS PERIOD. CURRENT PERIOD IS:      39

 USING AIR ENTRY PRESSURE FROM PREVIOUS STRESS PERIOD. CURRENT PERIOD IS:      39

 USING ROOT PRESSURE HEAD FROM PREVIOUS STRESS PERIOD. CURRENT PERIOD IS:      39

 USING ROOT ACTIVITY FROM PREVIOUS STRESS PERIOD. CURRENT PERIOD IS:      39

 PROCESSING AG STRESS PERIOD DATA

 READING AG STRESS PERIOD DATA

 READING IRRIGATION SEGMENT

 READING IRRIGATION WELL

 READING SUPPLEMENTAL WELL

 END PROCESSING AG STRESS PERIOD DATA OPTIONS
 
 SOLVING FOR HEAD 
                                                   Max.-Head-Change                         Max.-Flux-Residual
  Residual-Control   Outer-Iter.   Inner-Iter.     Column Row Layer    Maximum-Head-Change  Column Row Layer    Maximum-Flux-Residual          L2-NORM 
          0                 1           2             3    7     1       0.4263577200E-02       3    7    1         0.1126491844E+00      0.5018000811E+00
          0                 2           2             3    7     1      -0.4147299533E-03       3    7    1        -0.1126492369E-01      0.5017662132E-01
          0                 3           1             3    7     1       0.2824160096E-04       3    7    1         0.7885449487E-03      0.3511976773E-02

    ------------------------------------------------
       NWT REQUIRED            3 OUTER ITERATIONS 
       AND A TOTAL OF          5 INNER ITERATIONS.
    ------------------------------------------------

 NO OUTPUT CONTROL FOR STRESS PERIOD   39   TIME STEP    1
 
 SOLVING FOR HEAD 
                                                   Max.-Head-Change                         Max.-Flux-Residual
  Residual-Control   Outer-Iter.   Inner-Iter.     Column Row Layer    Maximum-Head-Change  Column Row Layer    Maximum-Flux-Residual          L2-NORM 
          0                 1           2             3    7     1       0.4199778110E-02       3    7    1         0.1109479050E+00      0.4970544580E+00
          0                 2           2             3    7     1      -0.4085240421E-03       3    7    1        -0.1109479576E-01      0.4970230195E-01
          0                 3           1             3    7     1       0.2781900119E-04       3    7    1         0.7766359936E-03      0.3478876509E-02

    ------------------------------------------------
       NWT REQUIRED            3 OUTER ITERATIONS 
       AND A TOTAL OF          5 INNER ITERATIONS.
    ------------------------------------------------

 NO OUTPUT CONTROL FOR STRESS PERIOD   39   TIME STEP    2
 
 SOLVING FOR HEAD 
                                                   Max.-Head-Change                         Max.-Flux-Residual
  Residual-Control   Outer-Iter.   Inner-Iter.     Column Row Layer    Maximum-Head-Change  Column Row Layer    Maximum-Flux-Residual          L2-NORM 
          0                 1           2             3    7     1       0.4137264908E-02       3    7    1         0.1092809294E+00      0.4900694662E+00
          0                 2           2             3    7     1      -0.4024625986E-03       3    7    1        -0.1092809819E-01      0.4918970085E-01
          0                 3           1             3    7     1       0.2740623874E-04       3    7    1         0.7649671622E-03      0.3455528297E-02

    ------------------------------------------------
       NWT REQUIRED            3 OUTER ITERATIONS 
       AND A TOTAL OF          5 INNER ITERATIONS.
    ------------------------------------------------

 NO OUTPUT CONTROL FOR STRESS PERIOD   39   TIME STEP    3
 
 SOLVING FOR HEAD 
                                                   Max.-Head-Change                         Max.-Flux-Residual
  Residual-Control   Outer-Iter.   Inner-Iter.     Column Row Layer    Maximum-Head-Change  Column Row Layer    Maximum-Flux-Residual          L2-NORM 
          0                 1           2             3    7     1       0.4076411706E-02       3    7    1         0.1076597988E+00      0.4859335122E+00
          0                 2           2             3    7     1      -0.3965238552E-03       3    7    1        -0.1076598513E-01      0.4858772192E-01
          0                 3           1             3    7     1       0.2700183252E-04       3    7    1         0.7536192330E-03      0.3400684386E-02

    ------------------------------------------------
       NWT REQUIRED            3 OUTER ITERATIONS 
       AND A TOTAL OF          5 INNER ITERATIONS.
    ------------------------------------------------

 NO OUTPUT CONTROL FOR STRESS PERIOD   39   TIME STEP    4
 
 SOLVING FOR HEAD 
                                                   Max.-Head-Change                         Max.-Flux-Residual
  Residual-Control   Outer-Iter.   Inner-Iter.     Column Row Layer    Maximum-Head-Change  Column Row Layer    Maximum-Flux-Residual          L2-NORM 
          0                 1           2             3    7     1       0.4016734356E-02       3    7    1         0.1060697079E+00      0.4814459149E+00
          0                 2           2             3    7     1      -0.3907188769E-03       3    7    1        -0.1060697606E-01      0.4814000366E-01
          0                 3           1             3    7     1       0.2660653490E-04       3    7    1         0.7424885894E-03      0.3369269162E-02

    ------------------------------------------------
       NWT REQUIRED            3 OUTER ITERATIONS 
       AND A TOTAL OF          5 INNER ITERATIONS.
    ------------------------------------------------

 NO OUTPUT CONTROL FOR STRESS PERIOD   39   TIME STEP    5
 
 SOLVING FOR HEAD 
                                                   Max.-Head-Change                         Max.-Flux-Residual
  Residual-Control   Outer-Iter.   Inner-Iter.     Column Row Layer    Maximum-Head-Change  Column Row Layer    Maximum-Flux-Residual          L2-NORM 
          0                 1           2             3    7     1       0.3958672065E-02       3    7    1         0.1045226097E+00      0.4771419466E+00
          0                 2           2             3    7     1      -0.3850709986E-03       3    7    1        -0.1045226621E-01      0.4771040474E-01
          0                 3           1             3    7     1       0.2622193587E-04       3    7    1         0.7316589038E-03      0.3339360925E-02

    ------------------------------------------------
       NWT REQUIRED            3 OUTER ITERATIONS 
       AND A TOTAL OF          5 INNER ITERATIONS.
    ------------------------------------------------

 NO OUTPUT CONTROL FOR STRESS PERIOD   39   TIME STEP    6
 
 SOLVING FOR HEAD 
                                                   Max.-Head-Change                         Max.-Flux-Residual
  Residual-Control   Outer-Iter.   Inner-Iter.     Column Row Layer    Maximum-Head-Change  Column Row Layer    Maximum-Flux-Residual          L2-NORM 
          0                 1           2             3    7     1       0.3902176083E-02       3    7    1         0.1030173809E+00      0.4730068839E+00
          0                 2           2             3    7     1      -0.3795754796E-03       3    7    1        -0.1030174332E-01      0.4729753185E-01
          0                 3           1             3    7     1       0.2584771117E-04       3    7    1         0.7211222935E-03      0.3310444873E-02

    ------------------------------------------------
       NWT REQUIRED            3 OUTER ITERATIONS 
       AND A TOTAL OF          5 INNER ITERATIONS.
    ------------------------------------------------

 NO OUTPUT CONTROL FOR STRESS PERIOD   39   TIME STEP    7
 
 SOLVING FOR HEAD 
                                                   Max.-Head-Change                         Max.-Flux-Residual
  Residual-Control   Outer-Iter.   Inner-Iter.     Column Row Layer    Maximum-Head-Change  Column Row Layer    Maximum-Flux-Residual          L2-NORM 
          0                 1           2             3    7     1       0.3846713964E-02       3    7    1         0.1015397329E+00      0.4690306340E+00
          0                 2           2             3    7     1      -0.3741805277E-03       3    7    1        -0.1015397851E-01      0.4690054158E-01
          0                 3           1             3    7     1       0.2548033461E-04       3    7    1         0.7107787494E-03      0.3282798617E-02

    ------------------------------------------------
       NWT REQUIRED            3 OUTER ITERATIONS 
       AND A TOTAL OF          5 INNER ITERATIONS.
    ------------------------------------------------

 NO OUTPUT CONTROL FOR STRESS PERIOD   39   TIME STEP    8
 
 SOLVING FOR HEAD 
                                                   Max.-Head-Change                         Max.-Flux-Residual
  Residual-Control   Outer-Iter.   Inner-Iter.     Column Row Layer    Maximum-Head-Change  Column Row Layer    Maximum-Flux-Residual          L2-NORM 
          0                 1           2             3    7     1       0.3792251645E-02       3    7    1         0.1000888868E+00      0.4651905868E+00
          0                 2           2             3    7     1      -0.3688828282E-03       3    7    1        -0.1000889387E-01      0.4651708057E-01
          0                 3           1             3    7     1       0.2511958088E-04       3    7    1         0.7006228259E-03      0.3256077688E-02

    ------------------------------------------------
       NWT REQUIRED            3 OUTER ITERATIONS 
       AND A TOTAL OF          5 INNER ITERATIONS.
    ------------------------------------------------

 NO OUTPUT CONTROL FOR STRESS PERIOD   39   TIME STEP    9
 
 SOLVING FOR HEAD 
                                                   Max.-Head-Change                         Max.-Flux-Residual
  Residual-Control   Outer-Iter.   Inner-Iter.     Column Row Layer    Maximum-Head-Change  Column Row Layer    Maximum-Flux-Residual          L2-NORM 
          0                 1           2             3    7     1       0.3739740193E-02       3    7    1         0.9869000998E-01      0.4614962946E+00
          0                 2           2             3    7     1      -0.3637748952E-03       3    7    1        -0.9869006179E-02      0.4614792287E-01
          0                 3           1             3    7     1       0.2477174903E-04       3    7    1         0.6908306761E-03      0.3230157698E-02

    ------------------------------------------------
       NWT REQUIRED            3 OUTER ITERATIONS 
       AND A TOTAL OF          5 INNER ITERATIONS.
    ------------------------------------------------

 NO OUTPUT CONTROL FOR STRESS PERIOD   39   TIME STEP   10
 
 SOLVING FOR HEAD 
                                                   Max.-Head-Change                         Max.-Flux-Residual
  Residual-Control   Outer-Iter.   Inner-Iter.     Column Row Layer    Maximum-Head-Change  Column Row Layer    Maximum-Flux-Residual          L2-NORM 
          0                 1           2             3    7     1       0.3687654990E-02       3    7    1         0.9730263263E-01      0.4579368524E+00
          0                 2           2             3    7     1      -0.3587084242E-03       3    7    1        -0.9730268403E-02      0.4579234110E-01
          0                 3           1             3    7     1       0.2442674141E-04       3    7    1         0.6811190335E-03      0.3205361717E-02

    ------------------------------------------------
       NWT REQUIRED            3 OUTER ITERATIONS 
       AND A TOTAL OF          5 INNER ITERATIONS.
    ------------------------------------------------

 NO OUTPUT CONTROL FOR STRESS PERIOD   39   TIME STEP   11
 
 SOLVING FOR HEAD 
                                                   Max.-Head-Change                         Max.-Flux-Residual
  Residual-Control   Outer-Iter.   Inner-Iter.     Column Row Layer    Maximum-Head-Change  Column Row Layer    Maximum-Flux-Residual          L2-NORM 
          0                 1           2             3    7     1       0.3637447160E-02       3    7    1         0.9596538124E-01      0.4545026525E+00
          0                 2           2             3    7     1      -0.3538245709E-03       3    7    1        -0.9596543242E-02      0.4544914384E-01
          0                 3           1             3    7     1       0.2409416931E-04       3    7    1         0.6717582721E-03      0.3181335633E-02

    ------------------------------------------------
       NWT REQUIRED            3 OUTER ITERATIONS 
       AND A TOTAL OF          5 INNER ITERATIONS.
    ------------------------------------------------

 NO OUTPUT CONTROL FOR STRESS PERIOD   39   TIME STEP   12
 
 SOLVING FOR HEAD 
                                                   Max.-Head-Change                         Max.-Flux-Residual
  Residual-Control   Outer-Iter.   Inner-Iter.     Column Row Layer    Maximum-Head-Change  Column Row Layer    Maximum-Flux-Residual          L2-NORM 
          0                 1           2             3    7     1       0.3588088406E-02       3    7    1         0.9465074879E-01      0.4511728454E+00
          0                 2           2             3    7     1      -0.3490233087E-03       3    7    1        -0.9465079952E-02      0.4511635419E-01
          0                 3           1             3    7     1       0.2376722033E-04       3    7    1         0.6625558318E-03      0.3158071965E-02

    ------------------------------------------------
       NWT REQUIRED            3 OUTER ITERATIONS 
       AND A TOTAL OF          5 INNER ITERATIONS.
    ------------------------------------------------

 NO OUTPUT CONTROL FOR STRESS PERIOD   39   TIME STEP   13
 
 SOLVING FOR HEAD 
                                                   Max.-Head-Change                         Max.-Flux-Residual
  Residual-Control   Outer-Iter.   Inner-Iter.     Column Row Layer    Maximum-Head-Change  Column Row Layer    Maximum-Flux-Residual          L2-NORM 
          0                 1           2             3    7     1       0.3540042573E-02       3    7    1         0.9337115356E-01      0.4479664921E+00
          0                 2           2             3    7     1      -0.3443497584E-03       3    7    1        -0.9337120402E-02      0.4479594075E-01
          0                 3           1             3    7     1       0.2344896839E-04       3    7    1         0.6535986548E-03      0.3135652566E-02

    ------------------------------------------------
       NWT REQUIRED            3 OUTER ITERATIONS 
       AND A TOTAL OF          5 INNER ITERATIONS.
    ------------------------------------------------

 NO OUTPUT CONTROL FOR STRESS PERIOD   39   TIME STEP   14
 
 SOLVING FOR HEAD 
                                                   Max.-Head-Change                         Max.-Flux-Residual
  Residual-Control   Outer-Iter.   Inner-Iter.     Column Row Layer    Maximum-Head-Change  Column Row Layer    Maximum-Flux-Residual          L2-NORM 
          0                 1           2             3    7     1       0.3492779450E-02       3    7    1         0.9211256924E-01      0.4448591999E+00
          0                 2           2             3    7     1      -0.3397523448E-03       3    7    1        -0.9211261935E-02      0.4448537033E-01
          0                 3           1             3    7     1       0.2313590196E-04       3    7    1         0.6447885778E-03      0.3113917935E-02

    ------------------------------------------------
       NWT REQUIRED            3 OUTER ITERATIONS 
       AND A TOTAL OF          5 INNER ITERATIONS.
    ------------------------------------------------

 NO OUTPUT CONTROL FOR STRESS PERIOD   39   TIME STEP   15
 
 SOLVING FOR HEAD 
                                                   Max.-Head-Change                         Max.-Flux-Residual
  Residual-Control   Outer-Iter.   Inner-Iter.     Column Row Layer    Maximum-Head-Change  Column Row Layer    Maximum-Flux-Residual          L2-NORM 
          0                 1           2             3    7     1       0.3446767554E-02       3    7    1         0.9088730182E-01      0.4418612598E+00
          0                 2           2             3    7     1      -0.3352766406E-03       3    7    1        -0.9088735150E-02      0.4418570685E-01
          0                 3           1             3    7     1       0.2283112311E-04       3    7    1         0.6362116992E-03      0.3092957846E-02

    ------------------------------------------------
       NWT REQUIRED            3 OUTER ITERATIONS 
       AND A TOTAL OF          5 INNER ITERATIONS.
    ------------------------------------------------

 NO OUTPUT CONTROL FOR STRESS PERIOD   39   TIME STEP   16
 
 SOLVING FOR HEAD 
                                                   Max.-Head-Change                         Max.-Flux-Residual
  Residual-Control   Outer-Iter.   Inner-Iter.     Column Row Layer    Maximum-Head-Change  Column Row Layer    Maximum-Flux-Residual          L2-NORM 
          0                 1           2             3    7     1       0.3401967556E-02       3    7    1         0.8969447172E-01      0.4389444735E+00
          0                 2           2             3    7     1      -0.3309188209E-03       3    7    1        -0.8969452099E-02      0.4389408246E-01
          0                 3           1             3    7     1       0.2253437104E-04       3    7    1         0.6278618727E-03      0.3072556191E-02

    ------------------------------------------------
       NWT REQUIRED            3 OUTER ITERATIONS 
       AND A TOTAL OF          5 INNER ITERATIONS.
    ------------------------------------------------

 NO OUTPUT CONTROL FOR STRESS PERIOD   39   TIME STEP   17
 
 SOLVING FOR HEAD 
                                                   Max.-Head-Change                         Max.-Flux-Residual
  Residual-Control   Outer-Iter.   Inner-Iter.     Column Row Layer    Maximum-Head-Change  Column Row Layer    Maximum-Flux-Residual          L2-NORM 
          0                 1           2             3    7     1       0.3357858421E-02       3    7    1         0.8852003323E-01      0.4361293274E+00
          0                 2           2             3    7     1      -0.3266282034E-03       3    7    1        -0.8852008194E-02      0.4361267927E-01
          0                 3           1             3    7     1       0.2224219575E-04       3    7    1         0.6196407998E-03      0.3052887901E-02

    ------------------------------------------------
       NWT REQUIRED            3 OUTER ITERATIONS 
       AND A TOTAL OF          5 INNER ITERATIONS.
    ------------------------------------------------

 NO OUTPUT CONTROL FOR STRESS PERIOD   39   TIME STEP   18
 
 SOLVING FOR HEAD 
                                                   Max.-Head-Change                         Max.-Flux-Residual
  Residual-Control   Outer-Iter.   Inner-Iter.     Column Row Layer    Maximum-Head-Change  Column Row Layer    Maximum-Flux-Residual          L2-NORM 
          0                 1           2             3    7     1       0.3314905031E-02       3    7    1         0.8737653095E-01      0.4333897611E+00
          0                 2           2             3    7     1      -0.3224500084E-03       3    7    1        -0.8737657925E-02      0.4333878077E-01
          0                 3           1             3    7     1       0.2195767567E-04       3    7    1         0.6116362702E-03      0.3033713297E-02

    ------------------------------------------------
       NWT REQUIRED            3 OUTER ITERATIONS 
       AND A TOTAL OF          5 INNER ITERATIONS.
    ------------------------------------------------

 NO OUTPUT CONTROL FOR STRESS PERIOD   39   TIME STEP   19
 
 SOLVING FOR HEAD 
                                                   Max.-Head-Change                         Max.-Flux-Residual
  Residual-Control   Outer-Iter.   Inner-Iter.     Column Row Layer    Maximum-Head-Change  Column Row Layer    Maximum-Flux-Residual          L2-NORM 
          0                 1           2             3    7     1       0.3273074737E-02       3    7    1         0.8626299063E-01      0.4307528202E+00
          0                 2           2             3    7     1      -0.3183810595E-03       3    7    1        -0.8626303844E-02      0.4307511651E-01
          0                 3           1             3    7     1       0.2168059469E-04       3    7    1         0.6038414708E-03      0.3015245182E-02

    ------------------------------------------------
       NWT REQUIRED            3 OUTER ITERATIONS 
       AND A TOTAL OF          5 INNER ITERATIONS.
    ------------------------------------------------

 NO OUTPUT CONTROL FOR STRESS PERIOD   39   TIME STEP   20
 
 SOLVING FOR HEAD 
                                                   Max.-Head-Change                         Max.-Flux-Residual
  Residual-Control   Outer-Iter.   Inner-Iter.     Column Row Layer    Maximum-Head-Change  Column Row Layer    Maximum-Flux-Residual          L2-NORM 
          0                 1           2             3    7     1       0.3231848015E-02       3    7    1         0.8516553951E-01      0.4281730487E+00
          0                 2           2             3    7     1      -0.3143708228E-03       3    7    1        -0.8516558679E-02      0.4281717224E-01
          0                 3           1             3    7     1       0.2140751303E-04       3    7    1         0.5961593309E-03      0.2997186993E-02

    ------------------------------------------------
       NWT REQUIRED            3 OUTER ITERATIONS 
       AND A TOTAL OF          5 INNER ITERATIONS.
    ------------------------------------------------

 NO OUTPUT CONTROL FOR STRESS PERIOD   39   TIME STEP   21
 
 SOLVING FOR HEAD 
                                                   Max.-Head-Change                         Max.-Flux-Residual
  Residual-Control   Outer-Iter.   Inner-Iter.     Column Row Layer    Maximum-Head-Change  Column Row Layer    Maximum-Flux-Residual          L2-NORM 
          0                 1           2             3    7     1       0.3191692300E-02       6    5    1         0.8439392664E-01      0.4256744455E+00
          0                 2           2             3    7     1      -0.3104647655E-03       6    5    1        -0.8439396260E-02      0.4256734520E-01
          0                 3           1             3    7     1       0.2114152469E-04       6    5    1         0.5907579516E-03      0.2979710162E-02

    ------------------------------------------------
       NWT REQUIRED            3 OUTER ITERATIONS 
       AND A TOTAL OF          5 INNER ITERATIONS.
    ------------------------------------------------

 NO OUTPUT CONTROL FOR STRESS PERIOD   39   TIME STEP   22
 
 SOLVING FOR HEAD 
                                                   Max.-Head-Change                         Max.-Flux-Residual
  Residual-Control   Outer-Iter.   Inner-Iter.     Column Row Layer    Maximum-Head-Change  Column Row Layer    Maximum-Flux-Residual          L2-NORM 
          0                 1           2             3    7     1       0.3152578424E-02       6    5    1         0.8364441801E-01      0.4232574313E+00
          0                 2           2             3    7     1      -0.3066600499E-03       6    5    1        -0.8364445304E-02      0.4232565915E-01
          0                 3           1             3    7     1       0.2088243681E-04       6    5    1         0.5855113741E-03      0.2963425288E-02

    ------------------------------------------------
       NWT REQUIRED            3 OUTER ITERATIONS 
       AND A TOTAL OF          5 INNER ITERATIONS.
    ------------------------------------------------

 NO OUTPUT CONTROL FOR STRESS PERIOD   39   TIME STEP   23
 
 SOLVING FOR HEAD 
                                                   Max.-Head-Change                         Max.-Flux-Residual
  Residual-Control   Outer-Iter.   Inner-Iter.     Column Row Layer    Maximum-Head-Change  Column Row Layer    Maximum-Flux-Residual          L2-NORM 
          0                 1           2             3    7     1       0.3114477411E-02       6    5    1         0.8291410952E-01      0.4209023099E+00
          0                 2           2             3    7     1      -0.3029538588E-03       6    5    1        -0.8291414357E-02      0.4209018250E-01
          0                 3           1             3    7     1       0.2063005861E-04       6    5    1         0.5803992162E-03      0.2946302095E-02

    ------------------------------------------------
       NWT REQUIRED            3 OUTER ITERATIONS 
       AND A TOTAL OF          5 INNER ITERATIONS.
    ------------------------------------------------

 NO OUTPUT CONTROL FOR STRESS PERIOD   39   TIME STEP   24
 
 SOLVING FOR HEAD 
                                                   Max.-Head-Change                         Max.-Flux-Residual
  Residual-Control   Outer-Iter.   Inner-Iter.     Column Row Layer    Maximum-Head-Change  Column Row Layer    Maximum-Flux-Residual          L2-NORM 
          0                 1           2             3    7     1       0.3076866302E-02       6    5    1         0.8220229706E-01      0.4186106886E+00
          0                 2           2             3    7     1      -0.2992953219E-03       6    5    1        -0.8220233031E-02      0.4186101880E-01
          0                 3           1             3    7     1       0.2038092591E-04       6    5    1         0.5754165245E-03      0.2930270545E-02

    ------------------------------------------------
       NWT REQUIRED            3 OUTER ITERATIONS 
       AND A TOTAL OF          5 INNER ITERATIONS.
    ------------------------------------------------

 NO OUTPUT CONTROL FOR STRESS PERIOD   39   TIME STEP   25
 
 SOLVING FOR HEAD 
                                                   Max.-Head-Change                         Max.-Flux-Residual
  Residual-Control   Outer-Iter.   Inner-Iter.     Column Row Layer    Maximum-Head-Change  Column Row Layer    Maximum-Flux-Residual          L2-NORM 
          0                 1           2             3    7     1       0.3040224984E-02       6    5    1         0.8149343699E-01      0.4163830501E+00
          0                 2           2             3    7     1      -0.2957311199E-03       6    5    1        -0.8149346903E-02      0.4163827200E-01
          0                 3           1             3    7     1       0.2013821676E-04       6    5    1         0.5704544888E-03      0.2914684655E-02

    ------------------------------------------------
       NWT REQUIRED            3 OUTER ITERATIONS 
       AND A TOTAL OF          5 INNER ITERATIONS.
    ------------------------------------------------

 NO OUTPUT CONTROL FOR STRESS PERIOD   39   TIME STEP   26
 
 SOLVING FOR HEAD 
                                                   Max.-Head-Change                         Max.-Flux-Residual
  Residual-Control   Outer-Iter.   Inner-Iter.     Column Row Layer    Maximum-Head-Change  Column Row Layer    Maximum-Flux-Residual          L2-NORM 
          0                 1           2             3    7     1       0.3004033194E-02       6    5    1         0.8081740168E-01      0.4142186382E+00
          0                 2           2             3    7     1      -0.2922106437E-03       6    5    1        -0.8081743335E-02      0.4142184513E-01
          0                 3           1             3    7     1       0.1989848496E-04       6    5    1         0.5657222255E-03      0.2899531663E-02

    ------------------------------------------------
       NWT REQUIRED            3 OUTER ITERATIONS 
       AND A TOTAL OF          5 INNER ITERATIONS.
    ------------------------------------------------

 NO OUTPUT CONTROL FOR STRESS PERIOD   39   TIME STEP   27
 
 SOLVING FOR HEAD 
                                                   Max.-Head-Change                         Max.-Flux-Residual
  Residual-Control   Outer-Iter.   Inner-Iter.     Column Row Layer    Maximum-Head-Change  Column Row Layer    Maximum-Flux-Residual          L2-NORM 
          0                 1           2             3    7     1       0.2969255821E-02       6    5    1         0.8014324071E-01      0.4121087442E+00
          0                 2           2             3    7     1      -0.2888277523E-03       6    5    1        -0.8014327123E-02      0.4121084484E-01
          0                 3           1             3    7     1       0.1966812210E-04       6    5    1         0.5610030848E-03      0.2884754193E-02

    ------------------------------------------------
       NWT REQUIRED            3 OUTER ITERATIONS 
       AND A TOTAL OF          5 INNER ITERATIONS.
    ------------------------------------------------

 NO OUTPUT CONTROL FOR STRESS PERIOD   39   TIME STEP   28
 
 SOLVING FOR HEAD 
                                                   Max.-Head-Change                         Max.-Flux-Residual
  Residual-Control   Outer-Iter.   Inner-Iter.     Column Row Layer    Maximum-Head-Change  Column Row Layer    Maximum-Flux-Residual          L2-NORM 
          0                 1           2             3    7     1       0.2934878286E-02       6    5    1         0.7950061619E-01      0.4100623967E+00
          0                 2           2             3    7     1      -0.2854837536E-03       6    5    1        -0.7950064588E-02      0.4100621693E-01
          0                 3           1             3    7     1       0.1944040786E-04       6    5    1         0.5565047313E-03      0.2870438721E-02

    ------------------------------------------------
       NWT REQUIRED            3 OUTER ITERATIONS 
       AND A TOTAL OF          5 INNER ITERATIONS.
    ------------------------------------------------

 NO OUTPUT CONTROL FOR STRESS PERIOD   39   TIME STEP   29
 
 SOLVING FOR HEAD 
                                                   Max.-Head-Change                         Max.-Flux-Residual
  Residual-Control   Outer-Iter.   Inner-Iter.     Column Row Layer    Maximum-Head-Change  Column Row Layer    Maximum-Flux-Residual          L2-NORM 
          0                 1           2             4   13     1       0.6586682154E-02       4   13    1         0.3781657356E+00      0.7999576761E+00
          0                 2           2             4   13     1      -0.6343722689E-03       4   13    1        -0.3744812116E-01      0.7849195561E-01
          0                 3           1             4   13     1       0.4259598293E-04       4   13    1         0.2585313805E-02      0.5354707681E-02

    ------------------------------------------------
       NWT REQUIRED            3 OUTER ITERATIONS 
       AND A TOTAL OF          5 INNER ITERATIONS.
    ------------------------------------------------

 NO OUTPUT CONTROL FOR STRESS PERIOD   39   TIME STEP   30



 STREAM LISTING     PERIOD     39   STEP       30

 LAYER ROW COL. STREAM  RCH.  FLOW INTO     FLOW TO   FLOW OUT OF   OVRLND.     DIRECT     STREAM       STREAM     STREAM     STREAM   STREAMBED  STREAMBED
                SEG.NO.  NO.  STRM. RCH.    AQUIFER    STRM. RCH.    RUNOFF     PRECIP       ET          HEAD       DEPTH      WIDTH   CONDCTNC.   GRADIENT

   1    1    1     1     1    3.2750E+01  2.7790E-01   3.2473E+01  0.000E+00  0.000E+00  0.000E+00  1.09432E+03  1.273E+00  1.445E+01  6.503E-02  1.424E+00
   1    2    2     1     2    3.2473E+01  4.3019E-01   3.2042E+01  0.000E+00  0.000E+00  0.000E+00  1.08933E+03  1.270E+00  1.439E+01  1.007E-01  1.423E+00
   1    3    3     1     3    3.2042E+01  3.6669E-01   3.1676E+01  0.000E+00  0.000E+00  0.000E+00  1.08369E+03  1.267E+00  1.432E+01  8.594E-02  1.422E+00
   1    3    4     1     4    3.1676E+01  3.3752E-01   3.1338E+01  0.000E+00  0.000E+00  0.000E+00  1.07867E+03  1.264E+00  1.426E+01  7.916E-02  1.421E+00
   1    4    5     2     1    2.9338E+01  3.3732E-01   2.9001E+01  0.000E+00  0.000E+00  0.000E+00  1.07326E+03  1.325E+00  1.200E+01  7.800E-02  1.442E+00
   1    5    6     2     2    2.9001E+01  2.5899E-01   2.8742E+01  0.000E+00  0.000E+00  0.000E+00  1.06783E+03  1.317E+00  1.200E+01  6.000E-02  1.439E+00
   1    6    6     2     3    2.8742E+01  2.5857E-01   2.8483E+01  0.000E+00  0.000E+00  0.000E+00  1.06310E+03  1.309E+00  1.200E+01  6.000E-02  1.436E+00
   1    7    6     2     4    2.8483E+01  2.5814E-01   2.8225E+01  0.000E+00  0.000E+00  0.000E+00  1.05838E+03  1.302E+00  1.200E+01  6.000E-02  1.434E+00
   1    8    6     2     5    2.8225E+01  2.5771E-01   2.7967E+01  0.000E+00  0.000E+00  0.000E+00  1.05365E+03  1.295E+00  1.200E+01  6.000E-02  1.432E+00
   1    3    5     3     1    2.0000E+00  2.8252E-01   1.7175E+00  0.000E+00  0.000E+00  0.000E+00  1.07555E+03  1.909E+00  9.636E+00  7.227E-02  1.955E+00
   1    3    6     3     2    1.7175E+00  2.4905E-01   1.4684E+00  0.000E+00  0.000E+00  0.000E+00  1.07264E+03  1.727E+00  8.909E+00  6.682E-02  1.864E+00
   1    3    7     3     3    1.4684E+00  1.9718E-01   1.2712E+00  0.000E+00  0.000E+00  0.000E+00  1.06987E+03  1.555E+00  8.218E+00  5.547E-02  1.777E+00
   1    4    8     3     4    1.2712E+00  2.2567E-01   1.0456E+00  0.000E+00  0.000E+00  0.000E+00  1.06682E+03  1.364E+00  7.455E+00  6.709E-02  1.682E+00
   1    5    8     3     5    1.0456E+00  1.5790E-01   8.8768E-01  0.000E+00  0.000E+00  0.000E+00  1.06362E+03  1.164E+00  6.655E+00  4.991E-02  1.582E+00
   1    6    8     3     6    8.8768E-01  5.5980E-02   8.3170E-01  0.000E+00  0.000E+00  0.000E+00  1.06158E+03  1.036E+00  6.145E+00  1.844E-02  1.518E+00
   1    5   10     4     1    1.0000E+01  9.0919E-02   9.9091E+00  0.000E+00  0.000E+00  0.000E+00  1.07836E+03  6.368E-01  1.000E+01  2.500E-02  1.212E+00
   1    5    9     4     2    9.9091E+00  1.8158E-01   9.7275E+00  0.000E+00  0.000E+00  0.000E+00  1.07154E+03  6.315E-01  1.000E+01  5.000E-02  1.211E+00
   1    6    8     4     3    9.7275E+00  1.2689E-01   9.6006E+00  0.000E+00  0.000E+00  0.000E+00  1.06381E+03  6.256E-01  1.000E+01  3.500E-02  1.209E+00
   1    6    8     5     1    1.0432E+01  2.2686E-01   1.0205E+01  0.000E+00  0.000E+00  0.000E+00  1.05868E+03  6.790E-01  1.542E+01  6.166E-02  1.226E+00
   1    7    7     5     2    1.0205E+01  2.7894E-01   9.9265E+00  0.000E+00  0.000E+00  0.000E+00  1.05417E+03  6.732E-01  1.519E+01  7.594E-02  1.224E+00
   1    8    7     5     3    9.9265E+00  1.9221E-01   9.7343E+00  0.000E+00  0.000E+00  0.000E+00  1.04992E+03  6.676E-01  1.497E+01  5.241E-02  1.223E+00
   1    8    6     5     4    9.7343E+00  1.3577E-01   9.5985E+00  0.000E+00  0.000E+00  0.000E+00  1.04691E+03  6.637E-01  1.482E+01  3.706E-02  1.221E+00
   1    9    6     6     1    3.7566E+01  2.7334E-01   3.7293E+01  0.000E+00  0.000E+00  0.000E+00  1.04428E+03  1.556E+00  1.200E+01  6.000E-02  1.519E+00
   1   10    7     6     2    3.7293E+01  2.7293E-01   3.7020E+01  0.000E+00  0.000E+00  0.000E+00  1.03973E+03  1.549E+00  1.200E+01  6.000E-02  1.516E+00
   1   11    7     6     3    3.7020E+01  2.7252E-01   3.6747E+01  0.000E+00  0.000E+00  0.000E+00  1.03518E+03  1.542E+00  1.200E+01  6.000E-02  1.514E+00
   1   12    7     6     4    3.6747E+01  2.7211E-01   3.6475E+01  0.000E+00  0.000E+00  0.000E+00  1.03063E+03  1.535E+00  1.200E+01  6.000E-02  1.512E+00
   1   13    7     6     5    3.6475E+01  1.2055E-02   3.6463E+01  0.000E+00  0.000E+00  0.000E+00  1.02744E+03  1.532E+00  1.200E+01  2.400E-02  1.674E-01
   1   14    9     7     1    1.5000E+02  1.3497E+00   1.4865E+02  0.000E+00  0.000E+00  0.000E+00  1.03987E+03  2.288E+00  5.529E+01  5.593E-01  8.044E-01
   1   13    8     7     2    1.4865E+02  1.8778E+00   1.4677E+02  0.000E+00  0.000E+00  0.000E+00  1.03478E+03  2.279E+00  5.526E+01  6.148E-01  1.018E+00
   1   13    7     7     3    1.4677E+02  1.5362E+00   1.4524E+02  0.000E+00  0.000E+00  0.000E+00  1.02969E+03  2.270E+00  5.521E+01  5.584E-01  9.170E-01
   1   13    6     8     1    1.8170E+02  1.0420E+00   1.8066E+02  0.000E+00  0.000E+00  0.000E+00  1.02490E+03  3.024E+00  4.384E+01  4.468E-01  7.774E-01
   1   13    5     8     2    1.8066E+02  2.6672E-01   1.8039E+02  0.000E+00  0.000E+00  0.000E+00  1.01864E+03  3.019E+00  4.378E+01  4.462E-01  1.993E-01
   1   13    4     8     3    1.8039E+02 -1.9606E+00   1.8235E+02  0.000E+00  0.000E+00  0.000E+00  1.01240E+03  3.025E+00  4.386E+01  4.469E+00 -1.462E-01
   1   13    3     8     4    1.8235E+02 -3.2725E+00   1.8562E+02  0.000E+00  0.000E+00  0.000E+00  1.00617E+03  3.041E+00  4.410E+01  4.493E+00 -2.428E-01
   1   13    2     8     5    1.8562E+02 -2.2253E+00   1.8785E+02  0.000E+00  0.000E+00  0.000E+00  9.99933E+02  3.058E+00  4.434E+01  4.519E+00 -1.642E-01
   1   13    1     8     6    1.8785E+02 -1.7865E+00   1.8964E+02  0.000E+00  0.000E+00  0.000E+00  9.94945E+02  3.070E+00  4.452E+01  2.722E+00 -2.188E-01
   1    8    6     9     1    0.0000E+00  0.0000E+00   0.0000E+00  0.000E+00  0.000E+00  0.000E+00  1.07875E+03  0.000E+00  4.000E+00  0.000E+00  1.000E+00
   1    8    5     9     2    0.0000E+00  0.0000E+00   0.0000E+00  0.000E+00  0.000E+00  0.000E+00  1.07825E+03  0.000E+00  4.000E+00  0.000E+00  1.000E+00





UNSATURATED ZONE PACKAGE VOLUMETRIC BUDGET FOR  TIME STEP    30 STRESS PERIOD   39
  ------------------------------------------------------------------------------



     CUMULATIVE VOLUMES      L**3       RATES FOR THIS TIME STEP      L**3/T
     ------------------                 ------------------------

           IN:                                      IN:
           ---                                      ---
        INFILTRATION =  1882876086.7922          INFILTRATION =           4.4075

          OUT:                                     OUT:
          ----                                     ----
              UZF ET =  1497133272.5702                UZF ET =           0.7250
        UZF RECHARGE =    79229179.6332          UZF RECHARGE =       0.0000E+00

            IN - OUT =   306513634.5888              IN - OUT =           3.6825

          STORAGE:                                 STORAGE:
          --------                                 --------
      STORAGE CHANGE =   306514409.8357        STORAGE CHANGE =           3.6825

 PERCENT DISCREPANCY IS DIFFERENCE BETWEEN IN-OUT MINUS CHANGE IN STORAGE
 DIVIDED BY THE AVERAGE OF IN AND OUT TIMES 100

 PERCENT DISCREPANCY =          -0.00     PERCENT DISCREPANCY =           0.00






1
  VOLUMETRIC BUDGET FOR AGRICULTURAL FIELDS AT  END OF TIME STEP   30, STRESS PERIOD  39
  ------------------------------------------------------------------------------

     CUMULATIVE VOLUMES      L**3       RATES FOR THIS TIME STEP      L**3/T
     ------------------                 ------------------------

           IN:                                      IN:
           ---                                      ---
               AG WELLS  =   514772736.0000                 AG WELLS  =           0.0000
      DIVERSION SEGMENTS =   927926528.0000        DIVERSION SEGMENTS =           0.0000
           GW IRRIGATION =           0.0000             GW IRRIGATION =           0.0000
           SW IRRIGATION =           0.0000             SW IRRIGATION =           0.0000
        SYSTEM LOSSES GW =           0.0000          SYSTEM LOSSES GW =           0.0000
        SYSTEM LOSSES SW =           0.0000          SYSTEM LOSSES SW =           0.0000

                TOTAL IN =  1442699264.0000                  TOTAL IN =           0.0000

          OUT:                                     OUT:
          ----                                     ----
               AG WELLS  =           0.0000                 AG WELLS  =           0.0000
      DIVERSION SEGMENTS =           0.0000        DIVERSION SEGMENTS =           0.0000
           GW IRRIGATION =   514772736.0000             GW IRRIGATION =           0.0000
           SW IRRIGATION =   927944192.0000             SW IRRIGATION =           0.0000
        SYSTEM LOSSES GW =           0.0000          SYSTEM LOSSES GW =           0.0000
        SYSTEM LOSSES SW =           0.0000          SYSTEM LOSSES SW =           0.0000

               TOTAL OUT =  1442716928.0000                 TOTAL OUT =           0.0000

                IN - OUT =      -17664.0000                  IN - OUT =           0.0000

     PERCENT DISCREPANCY =          -0.00         PERCENT DISCREPANCY =           0.00



1
  VOLUMETRIC BUDGET FOR ENTIRE MODEL AT END OF TIME STEP   30, STRESS PERIOD  39
  ------------------------------------------------------------------------------

     CUMULATIVE VOLUMES      L**3       RATES FOR THIS TIME STEP      L**3/T
     ------------------                 ------------------------

           IN:                                      IN:
           ---                                      ---
             STORAGE     =   867454784.0000               STORAGE     =           0.9266
       CONSTANT HEAD     =           0.0000         CONSTANT HEAD     =           0.0000
     HEAD DEP BOUNDS     =    28606964.0000       HEAD DEP BOUNDS     =           0.2867
      STREAM LEAKAGE     =  1198315648.0000        STREAM LEAKAGE     =          12.3599
        UZF RECHARGE     =    79229160.0000          UZF RECHARGE     =           0.0000
               GW ET     =           0.0000                 GW ET     =           0.0000
     SURFACE LEAKAGE     =           0.0000       SURFACE LEAKAGE     =           0.0000
           AG WELLS      =           0.0000             AG WELLS      =           0.0000

                TOTAL IN =  2173606656.0000                  TOTAL IN =          13.5731

          OUT:                                     OUT:
          ----                                     ----
             STORAGE     =   558769664.0000               STORAGE     =           4.0402
       CONSTANT HEAD     =           0.0000         CONSTANT HEAD     =           0.0000
     HEAD DEP BOUNDS     =    29066770.0000       HEAD DEP BOUNDS     =           0.2889
      STREAM LEAKAGE     =  1068392960.0000        STREAM LEAKAGE     =           9.2449
        UZF RECHARGE     =           0.0000          UZF RECHARGE     =           0.0000
               GW ET     =     2603293.0000                 GW ET     =           0.0000
     SURFACE LEAKAGE     =           0.0000       SURFACE LEAKAGE     =           0.0000
           AG WELLS      =   514772736.0000             AG WELLS      =           0.0000

               TOTAL OUT =  2173605376.0000                 TOTAL OUT =          13.5740

                IN - OUT =        1280.0000                  IN - OUT =      -8.8310E-04

     PERCENT DISCREPANCY =           0.00         PERCENT DISCREPANCY =          -0.01






         TIME SUMMARY AT END OF TIME STEP   30 IN STRESS PERIOD   39
                    SECONDS     MINUTES      HOURS       DAYS        YEARS
                    -----------------------------------------------------------
   TIME STEP LENGTH  87667.      1461.1      24.352      1.0147     2.77799E-03
 STRESS PERIOD TIME 2.63000E+06  43833.      730.56      30.440     8.33397E-02
         TOTAL TIME 1.00026E+08 1.66710E+06  27785.      1157.7      3.1696    
1
1
                            STRESS PERIOD NO.   40, LENGTH =   2630000.    
                            -----------------------------------------------

                              NUMBER OF TIME STEPS =    30

                               MULTIPLIER FOR DELT =     1.000

                            INITIAL TIME STEP SIZE =   87666.66    

 REUSING NON-PARAMETER GHB CELLS FROM LAST STRESS PERIOD

      2 GHB CELLS

 REUSING STREAM SEGMENT DATA FROM LAST STRESS PERIOD



            AREAL INFILTRATION RATE
 READING ON UNIT   19 WITH FORMAT: (10F4.0)            

            1           2           3           4           5           6           7           8           9          10
 ........................................................................................................................
   1   1.2000E-09   0.000       0.000       0.000       0.000       0.000       0.000       0.000       0.000       0.000    
   2   2.1000E-09  2.0000E-09  8.0000E-10  8.5000E-09   0.000       0.000       0.000       0.000       0.000       0.000    
   3   5.0000E-10  1.1000E-09  8.8000E-09  5.5000E-09   0.000       0.000       0.000       0.000       0.000       0.000    
   4   8.5000E-09  1.1000E-09  1.1000E-09  1.1000E-09  2.0000E-09   0.000       0.000       0.000       0.000       0.000    
   5   8.5000E-09  1.1000E-09  1.1000E-09  1.1000E-09  1.1000E-09   0.000       0.000       0.000       0.000       0.000    
   6   8.5000E-09  5.2000E-09  2.1000E-09  1.1000E-09  1.5000E-09   0.000       0.000       0.000       0.000       0.000    
   7   8.5000E-09  5.2000E-09  2.1000E-09  1.2000E-09  2.0000E-09   0.000       0.000       0.000       0.000       0.000    
   8   5.0000E-10  5.2000E-09  2.1000E-09  1.2000E-09  5.0000E-09   0.000       0.000       0.000       0.000       0.000    
   9   5.0000E-10  5.2000E-09  2.1000E-09  1.2000E-09  5.0000E-09   0.000       0.000       0.000       0.000       0.000    
  10   5.0000E-10  5.2000E-09  2.1000E-09  1.2000E-09  5.8000E-09   0.000       0.000       0.000       0.000       0.000    
  11   1.0000E-10  1.1000E-09  1.1000E-09  1.2000E-09  5.0000E-09   0.000       0.000       0.000       0.000       0.000    
  12   1.1000E-09  1.1000E-09  1.1000E-09  1.1000E-09  2.0000E-09   0.000       0.000       0.000       0.000       0.000    
  13   1.1000E-09  2.2000E-09  2.2000E-09  2.1000E-09  1.0000E-09   0.000       0.000       0.000       0.000       0.000    
  14   2.0000E-10  5.5000E-09  5.5000E-09  5.2000E-09  1.0000E-09   0.000       0.000       0.000       0.000       0.000    
  15    0.000      8.8000E-09  8.8000E-09   0.000       0.000       0.000       0.000       0.000       0.000       0.000    

                  ET RATE =  5.000000E-10

 USING ET EXTINCTION DEPTH FROM PREVIOUS STRESS PERIOD. CURRENT PERIOD IS:      40

 USING EXTINCTION WATER CONTENT FROM PREVIOUS STRESS PERIOD. CURRENT PERIOD IS:      40

 USING AIR ENTRY PRESSURE FROM PREVIOUS STRESS PERIOD. CURRENT PERIOD IS:      40

 USING ROOT PRESSURE HEAD FROM PREVIOUS STRESS PERIOD. CURRENT PERIOD IS:      40

 USING ROOT ACTIVITY FROM PREVIOUS STRESS PERIOD. CURRENT PERIOD IS:      40

 PROCESSING AG STRESS PERIOD DATA

 READING AG STRESS PERIOD DATA

 READING IRRIGATION SEGMENT

 READING IRRIGATION WELL

 READING SUPPLEMENTAL WELL

 END PROCESSING AG STRESS PERIOD DATA OPTIONS
 
 SOLVING FOR HEAD 
                                                   Max.-Head-Change                         Max.-Flux-Residual
  Residual-Control   Outer-Iter.   Inner-Iter.     Column Row Layer    Maximum-Head-Change  Column Row Layer    Maximum-Flux-Residual          L2-NORM 
          0                 1           2             4   13     1       0.2233943018E-01       4   13    1         0.1289007946E+01      0.2346759485E+01
          0                 2           2             4   13     1      -0.2115859709E-02       4   13    1        -0.1274878484E+00      0.2202439790E+00
          0                 3           2             3   13     1       0.1944286806E-03       3   13    1         0.1112049287E-01      0.1770987054E-01
          0                 4           1             3   13     1       0.2518949316E-04       3   13    1         0.1465972255E-02      0.1554000978E-02

    ------------------------------------------------
       NWT REQUIRED            4 OUTER ITERATIONS 
       AND A TOTAL OF          7 INNER ITERATIONS.
    ------------------------------------------------

 NO OUTPUT CONTROL FOR STRESS PERIOD   40   TIME STEP    1
 
 SOLVING FOR HEAD 
                                                   Max.-Head-Change                         Max.-Flux-Residual
  Residual-Control   Outer-Iter.   Inner-Iter.     Column Row Layer    Maximum-Head-Change  Column Row Layer    Maximum-Flux-Residual          L2-NORM 
          0                 1           2             4   13     1       0.2017453736E-01       4   13    1         0.1163233483E+01      0.2184107247E+01
          0                 2           2             3   13     1       0.2408574706E-02       3   13    1         0.1416551019E+00      0.2334604905E+00
          0                 3           2             3   13     1       0.3040936394E-03       3   13    1         0.1749857594E-01      0.2144398600E-01
          0                 4           1             3   13     1       0.3909196427E-04       3   13    1         0.2271175370E-02      0.2315069250E-02

    ------------------------------------------------
       NWT REQUIRED            4 OUTER ITERATIONS 
       AND A TOTAL OF          7 INNER ITERATIONS.
    ------------------------------------------------

 NO OUTPUT CONTROL FOR STRESS PERIOD   40   TIME STEP    2
 
 SOLVING FOR HEAD 
                                                   Max.-Head-Change                         Max.-Flux-Residual
  Residual-Control   Outer-Iter.   Inner-Iter.     Column Row Layer    Maximum-Head-Change  Column Row Layer    Maximum-Flux-Residual          L2-NORM 
          0                 1           2             4   13     1       0.1854048544E-01       4   13    1         0.1068871107E+01      0.2024667422E+01
          0                 2           2             4   13     1       0.2354600906E-02       4   13    1         0.1363603701E+00      0.2321511448E+00
          0                 3           2             4   13     1       0.2993142279E-03       4   13    1         0.1726816990E-01      0.2593737115E-01
          0                 4           1             4   13     1       0.3810256363E-04       4   13    1         0.2200848970E-02      0.3121137245E-02

    ------------------------------------------------
       NWT REQUIRED            4 OUTER ITERATIONS 
       AND A TOTAL OF          7 INNER ITERATIONS.
    ------------------------------------------------

 NO OUTPUT CONTROL FOR STRESS PERIOD   40   TIME STEP    3
 
 SOLVING FOR HEAD 
                                                   Max.-Head-Change                         Max.-Flux-Residual
  Residual-Control   Outer-Iter.   Inner-Iter.     Column Row Layer    Maximum-Head-Change  Column Row Layer    Maximum-Flux-Residual          L2-NORM 
          0                 1           2             2   13     1       0.1678616922E-01       4   13    1         0.9582194514E+00      0.1871352743E+01
          0                 2           2             4   13     1       0.2112483138E-02       4   13    1         0.1224018304E+00      0.2128542943E+00
          0                 3           2             4   13     1       0.2676922258E-03       4   13    1         0.1544002249E-01      0.2342036175E-01
          0                 4           1             3   13     1       0.3414687139E-04       4   13    1         0.1962364072E-02      0.2794088514E-02

    ------------------------------------------------
       NWT REQUIRED            4 OUTER ITERATIONS 
       AND A TOTAL OF          7 INNER ITERATIONS.
    ------------------------------------------------

 NO OUTPUT CONTROL FOR STRESS PERIOD   40   TIME STEP    4
 
 SOLVING FOR HEAD 
                                                   Max.-Head-Change                         Max.-Flux-Residual
  Residual-Control   Outer-Iter.   Inner-Iter.     Column Row Layer    Maximum-Head-Change  Column Row Layer    Maximum-Flux-Residual          L2-NORM 
          0                 1           2             2   13     1       0.1549454263E-01       2   13    1         0.8773726118E+00      0.1725524367E+01
          0                 2           2             4   13     1       0.1854844838E-02       4   13    1         0.1075222782E+00      0.1944279758E+00
          0                 3           2             4   13     1       0.2350759606E-03       4   13    1         0.1355293654E-01      0.2096363309E-01
          0                 4           1             3   13     1       0.3023805260E-04       3   13    1         0.1737685282E-02      0.2468189365E-02

    ------------------------------------------------
       NWT REQUIRED            4 OUTER ITERATIONS 
       AND A TOTAL OF          7 INNER ITERATIONS.
    ------------------------------------------------

 NO OUTPUT CONTROL FOR STRESS PERIOD   40   TIME STEP    5
 
 SOLVING FOR HEAD 
                                                   Max.-Head-Change                         Max.-Flux-Residual
  Residual-Control   Outer-Iter.   Inner-Iter.     Column Row Layer    Maximum-Head-Change  Column Row Layer    Maximum-Flux-Residual          L2-NORM 
          0                 1           2             2   13     1       0.1429738714E-01       2   13    1         0.8096558887E+00      0.1598065690E+01
          0                 2           2             4   13     1       0.1626689703E-02       4   13    1         0.9434069474E-01      0.1783752471E+00
          0                 3           2             4   13     1       0.2067717588E-03       4   13    1         0.1191483972E-01      0.1888080426E-01
          0                 4           1             3   13     1       0.2715835166E-04       3   13    1         0.1561081971E-02      0.2201840671E-02

    ------------------------------------------------
       NWT REQUIRED            4 OUTER ITERATIONS 
       AND A TOTAL OF          7 INNER ITERATIONS.
    ------------------------------------------------

 NO OUTPUT CONTROL FOR STRESS PERIOD   40   TIME STEP    6
 
 SOLVING FOR HEAD 
                                                   Max.-Head-Change                         Max.-Flux-Residual
  Residual-Control   Outer-Iter.   Inner-Iter.     Column Row Layer    Maximum-Head-Change  Column Row Layer    Maximum-Flux-Residual          L2-NORM 
          0                 1           2             2   13     1       0.1318884886E-01       2   13    1         0.7469316465E+00      0.1486672005E+01
          0                 2           2             4   13     1       0.1429762094E-02       4   13    1         0.8296592713E-01      0.1643503898E+00
          0                 3           2             3   13     1       0.1835046317E-03       3   13    1         0.1048807975E-01      0.1700852320E-01
          0                 4           1             3   13     1       0.2432662006E-04       3   13    1         0.1398758821E-02      0.1953153959E-02

    ------------------------------------------------
       NWT REQUIRED            4 OUTER ITERATIONS 
       AND A TOTAL OF          7 INNER ITERATIONS.
    ------------------------------------------------

 NO OUTPUT CONTROL FOR STRESS PERIOD   40   TIME STEP    7
 
 SOLVING FOR HEAD 
                                                   Max.-Head-Change                         Max.-Flux-Residual
  Residual-Control   Outer-Iter.   Inner-Iter.     Column Row Layer    Maximum-Head-Change  Column Row Layer    Maximum-Flux-Residual          L2-NORM 
          0                 1           2             2   13     1       0.1216292512E-01       2   13    1         0.6888631142E+00      0.1389366851E+01
          0                 2           2             4   13     1       0.1259620208E-02       4   13    1         0.7313659082E-01      0.1522812484E+00
          0                 3           2             3   13     1       0.1644468961E-03       3   13    1         0.9398212020E-02      0.1542754164E-01
          0                 4           1             3   13     1       0.2178162189E-04       3   13    1         0.1252632849E-02      0.1745273588E-02

    ------------------------------------------------
       NWT REQUIRED            4 OUTER ITERATIONS 
       AND A TOTAL OF          7 INNER ITERATIONS.
    ------------------------------------------------

 NO OUTPUT CONTROL FOR STRESS PERIOD   40   TIME STEP    8
 
 SOLVING FOR HEAD 
                                                   Max.-Head-Change                         Max.-Flux-Residual
  Residual-Control   Outer-Iter.   Inner-Iter.     Column Row Layer    Maximum-Head-Change  Column Row Layer    Maximum-Flux-Residual          L2-NORM 
          0                 1           2             2   13     1       0.1121434279E-01       2   13    1         0.6351585958E+00      0.1304235660E+01
          0                 2           2             3   13     1       0.1109455199E-02       4   13    1         0.6441965182E-01      0.1415997335E+00
          0                 3           2             3   13     1       0.1468296752E-03       3   13    1         0.8390806463E-02      0.1398257121E-01
          0                 4           1             3   13     1       0.1944531063E-04       3   13    1         0.1118552103E-02      0.1550791430E-02

    ------------------------------------------------
       NWT REQUIRED            4 OUTER ITERATIONS 
       AND A TOTAL OF          7 INNER ITERATIONS.
    ------------------------------------------------

 NO OUTPUT CONTROL FOR STRESS PERIOD   40   TIME STEP    9
 
 SOLVING FOR HEAD 
                                                   Max.-Head-Change                         Max.-Flux-Residual
  Residual-Control   Outer-Iter.   Inner-Iter.     Column Row Layer    Maximum-Head-Change  Column Row Layer    Maximum-Flux-Residual          L2-NORM 
          0                 1           2             2   13     1       0.1033761752E-01       2   13    1         0.5855106423E+00      0.1229747989E+01
          0                 2           2             3   13     1       0.9935571394E-03       3   13    1         0.5759179418E-01      0.1323854494E+00
          0                 3           2             3   13     1       0.1318022048E-03       3   13    1         0.7531298315E-02      0.1278094464E-01
          0                 4           1             3   13     1       0.1748426059E-04       3   13    1         0.1005959917E-02      0.1388866298E-02

    ------------------------------------------------
       NWT REQUIRED            4 OUTER ITERATIONS 
       AND A TOTAL OF          7 INNER ITERATIONS.
    ------------------------------------------------

 NO OUTPUT CONTROL FOR STRESS PERIOD   40   TIME STEP   10
 
 SOLVING FOR HEAD 
                                                   Max.-Head-Change                         Max.-Flux-Residual
  Residual-Control   Outer-Iter.   Inner-Iter.     Column Row Layer    Maximum-Head-Change  Column Row Layer    Maximum-Flux-Residual          L2-NORM 
          0                 1           2             2   13     1       0.9527843450E-02       2   13    1         0.5396445152E+00      0.1164507858E+01
          0                 2           2             3   13     1       0.8895963883E-03       2   13    1        -0.5189902926E-01      0.1243571960E+00
          0                 3           2             3   13     1       0.1179186047E-03       3   13    1         0.6736937442E-02      0.1170555930E-01
          0                 4           1             3   13     1       0.1563444094E-04       3   13    1         0.8996922343E-03      0.1242834551E-02

    ------------------------------------------------
       NWT REQUIRED            4 OUTER ITERATIONS 
       AND A TOTAL OF          7 INNER ITERATIONS.
    ------------------------------------------------

 NO OUTPUT CONTROL FOR STRESS PERIOD   40   TIME STEP   11
 
 SOLVING FOR HEAD 
                                                   Max.-Head-Change                         Max.-Flux-Residual
  Residual-Control   Outer-Iter.   Inner-Iter.     Column Row Layer    Maximum-Head-Change  Column Row Layer    Maximum-Flux-Residual          L2-NORM 
          0                 1           2             2   13     1       0.8780220698E-02       2   13    1         0.4972906663E+00      0.1107317468E+01
          0                 2           2             2   13     1      -0.8110096489E-03       2   13    1        -0.4787142008E-01      0.1173169602E+00
          0                 3           1             3   13     1       0.1054292478E-03       3   13    1         0.6022255903E-02      0.1076469090E-01
          0                 4           1             3   13     1       0.1398770746E-04       3   13    1         0.8050929237E-03      0.1110712747E-02

    ------------------------------------------------
       NWT REQUIRED            4 OUTER ITERATIONS 
       AND A TOTAL OF          6 INNER ITERATIONS.
    ------------------------------------------------

 NO OUTPUT CONTROL FOR STRESS PERIOD   40   TIME STEP   12
 
 SOLVING FOR HEAD 
                                                   Max.-Head-Change                         Max.-Flux-Residual
  Residual-Control   Outer-Iter.   Inner-Iter.     Column Row Layer    Maximum-Head-Change  Column Row Layer    Maximum-Flux-Residual          L2-NORM 
          0                 1           2             2   13     1       0.8090388225E-02       2   13    1         0.4582040980E+00      0.1057172377E+01
          0                 2           2             2   13     1      -0.7482390730E-03       2   13    1        -0.4414715212E-01      0.1112164413E+00
          0                 3           1             3   13     1       0.9463069502E-04       3   13    1         0.5404298159E-02      0.9968710931E-02

    ------------------------------------------------
       NWT REQUIRED            3 OUTER ITERATIONS 
       AND A TOTAL OF          5 INNER ITERATIONS.
    ------------------------------------------------

 NO OUTPUT CONTROL FOR STRESS PERIOD   40   TIME STEP   13
 
 SOLVING FOR HEAD 
                                                   Max.-Head-Change                         Max.-Flux-Residual
  Residual-Control   Outer-Iter.   Inner-Iter.     Column Row Layer    Maximum-Head-Change  Column Row Layer    Maximum-Flux-Residual          L2-NORM 
          0                 1           2             2   13     1       0.7453766328E-02       2   13    1         0.4221262942E+00      0.1013133430E+01
          0                 2           2             2   13     1      -0.6901207573E-03       2   13    1        -0.4070143313E-01      0.1059273111E+00
          0                 3           1             3   13     1       0.8496359668E-04       3   13    1         0.4851170528E-02      0.9269341641E-02

    ------------------------------------------------
       NWT REQUIRED            3 OUTER ITERATIONS 
       AND A TOTAL OF          5 INNER ITERATIONS.
    ------------------------------------------------

 NO OUTPUT CONTROL FOR STRESS PERIOD   40   TIME STEP   14
 
 SOLVING FOR HEAD 
                                                   Max.-Head-Change                         Max.-Flux-Residual
  Residual-Control   Outer-Iter.   Inner-Iter.     Column Row Layer    Maximum-Head-Change  Column Row Layer    Maximum-Flux-Residual          L2-NORM 
          0                 1           2             2   13     1       0.6866895066E-02       2   13    1         0.3888638064E+00      0.9743519430E+00
          0                 2           2             2   13     1      -0.6364495407E-03       2   13    1        -0.3752012625E-01      0.1012573026E+00
          0                 3           1             3   13     1       0.7611257904E-04       3   13    1         0.4344618854E-02      0.8651868104E-02

    ------------------------------------------------
       NWT REQUIRED            3 OUTER ITERATIONS 
       AND A TOTAL OF          5 INNER ITERATIONS.
    ------------------------------------------------

 NO OUTPUT CONTROL FOR STRESS PERIOD   40   TIME STEP   15
 
 SOLVING FOR HEAD 
                                                   Max.-Head-Change                         Max.-Flux-Residual
  Residual-Control   Outer-Iter.   Inner-Iter.     Column Row Layer    Maximum-Head-Change  Column Row Layer    Maximum-Flux-Residual          L2-NORM 
          0                 1           2             1   13     1       0.6328981574E-02       2   13    1         0.3582015851E+00      0.9401476471E+00
          0                 2           2             1   13     1      -0.5974352301E-03       2   13    1        -0.3458361191E-01      0.9717722491E-01
          0                 3           1             3   13     1       0.6824020002E-04       3   13    1         0.3894077227E-02      0.8118533333E-02

    ------------------------------------------------
       NWT REQUIRED            3 OUTER ITERATIONS 
       AND A TOTAL OF          5 INNER ITERATIONS.
    ------------------------------------------------

 NO OUTPUT CONTROL FOR STRESS PERIOD   40   TIME STEP   16
 
 SOLVING FOR HEAD 
                                                   Max.-Head-Change                         Max.-Flux-Residual
  Residual-Control   Outer-Iter.   Inner-Iter.     Column Row Layer    Maximum-Head-Change  Column Row Layer    Maximum-Flux-Residual          L2-NORM 
          0                 1           2             1   13     1       0.6028025041E-02       2   13    1         0.3299521276E+00      0.9099174735E+00
          0                 2           2             1   13     1      -0.5697146558E-03       1   13    1        -0.3199844941E-01      0.9360595053E-01
          0                 3           1             3   13     1       0.6124631077E-04       3   13    1         0.3493842283E-02      0.7657088202E-02

    ------------------------------------------------
       NWT REQUIRED            3 OUTER ITERATIONS 
       AND A TOTAL OF          5 INNER ITERATIONS.
    ------------------------------------------------

 NO OUTPUT CONTROL FOR STRESS PERIOD   40   TIME STEP   17
 
 SOLVING FOR HEAD 
                                                   Max.-Head-Change                         Max.-Flux-Residual
  Residual-Control   Outer-Iter.   Inner-Iter.     Column Row Layer    Maximum-Head-Change  Column Row Layer    Maximum-Flux-Residual          L2-NORM 
          0                 1           2             1   13     1       0.5739438113E-02       1   13    1         0.3135965137E+00      0.8831489661E+00
          0                 2           2             1   13     1      -0.5430325454E-03       1   13    1        -0.3050603244E-01      0.9048176408E-01
          0                 3           1             3   13     1       0.5501531849E-04       3   13    1         0.3137136276E-02      0.7264059646E-02

    ------------------------------------------------
       NWT REQUIRED            3 OUTER ITERATIONS 
       AND A TOTAL OF          5 INNER ITERATIONS.
    ------------------------------------------------

 NO OUTPUT CONTROL FOR STRESS PERIOD   40   TIME STEP   18
 
 SOLVING FOR HEAD 
                                                   Max.-Head-Change                         Max.-Flux-Residual
  Residual-Control   Outer-Iter.   Inner-Iter.     Column Row Layer    Maximum-Head-Change  Column Row Layer    Maximum-Flux-Residual          L2-NORM 
          0                 1           2             1   13     1       0.5462993572E-02       1   13    1         0.2985504317E+00      0.8593697266E+00
          0                 2           2             1   13     1      -0.5174208367E-03       1   13    1        -0.2907287962E-01      0.8773713054E-01
          0                 3           1             3   13     1       0.4962808181E-04       3   13    1         0.2828950634E-02      0.6925079772E-02

    ------------------------------------------------
       NWT REQUIRED            3 OUTER ITERATIONS 
       AND A TOTAL OF          5 INNER ITERATIONS.
    ------------------------------------------------

 NO OUTPUT CONTROL FOR STRESS PERIOD   40   TIME STEP   19
 
 SOLVING FOR HEAD 
                                                   Max.-Head-Change                         Max.-Flux-Residual
  Residual-Control   Outer-Iter.   Inner-Iter.     Column Row Layer    Maximum-Head-Change  Column Row Layer    Maximum-Flux-Residual          L2-NORM 
          0                 1           2             1   13     1       0.5198304590E-02       1   13    1         0.2841384338E+00      0.8382142567E+00
          0                 2           2             1   13     1      -0.4928249178E-03       1   13    1        -0.2769600920E-01      0.8532106434E-01
          0                 3           1             3   13     1       0.4473687235E-04       3   13    1         0.2549146299E-02      0.6627493202E-02

    ------------------------------------------------
       NWT REQUIRED            3 OUTER ITERATIONS 
       AND A TOTAL OF          5 INNER ITERATIONS.
    ------------------------------------------------

 NO OUTPUT CONTROL FOR STRESS PERIOD   40   TIME STEP   20
 
 SOLVING FOR HEAD 
                                                   Max.-Head-Change                         Max.-Flux-Residual
  Residual-Control   Outer-Iter.   Inner-Iter.     Column Row Layer    Maximum-Head-Change  Column Row Layer    Maximum-Flux-Residual          L2-NORM 
          0                 1           2             1   13     1       0.4945070787E-02       1   13    1         0.2703449615E+00      0.8193270133E+00
          0                 2           2             1   13     1      -0.4692151014E-03       1   13    1        -0.2637382330E-01      0.8317376272E-01
          0                 3           1             3   13     1       0.4031241137E-04       3   13    1         0.2295967408E-02      0.6370461952E-02

    ------------------------------------------------
       NWT REQUIRED            3 OUTER ITERATIONS 
       AND A TOTAL OF          5 INNER ITERATIONS.
    ------------------------------------------------

 NO OUTPUT CONTROL FOR STRESS PERIOD   40   TIME STEP   21
 
 SOLVING FOR HEAD 
                                                   Max.-Head-Change                         Max.-Flux-Residual
  Residual-Control   Outer-Iter.   Inner-Iter.     Column Row Layer    Maximum-Head-Change  Column Row Layer    Maximum-Flux-Residual          L2-NORM 
          0                 1           2             1   13     1       0.4702964970E-02       1   13    1         0.2571528966E+00      0.8024268537E+00
          0                 2           2             1   13     1      -0.4466125570E-03       1   13    1        -0.2510759615E-01      0.8127137969E-01
          0                 3           1             3   13     1       0.3635271499E-04       3   13    1         0.2069429801E-02      0.6146211945E-02

    ------------------------------------------------
       NWT REQUIRED            3 OUTER ITERATIONS 
       AND A TOTAL OF          5 INNER ITERATIONS.
    ------------------------------------------------

 NO OUTPUT CONTROL FOR STRESS PERIOD   40   TIME STEP   22
 
 SOLVING FOR HEAD 
                                                   Max.-Head-Change                         Max.-Flux-Residual
  Residual-Control   Outer-Iter.   Inner-Iter.     Column Row Layer    Maximum-Head-Change  Column Row Layer    Maximum-Flux-Residual          L2-NORM 
          0                 1           2             1   13     1       0.4471586039E-02       1   13    1         0.2445410297E+00      0.7872500698E+00
          0                 2           2             1    1     1      -0.4256035177E-03       1   13    1        -0.2389410781E-01      0.7957990023E-01
          0                 3           1             3   13     1       0.3283706637E-04       3   13    1         0.1868318214E-02      0.5952834312E-02

    ------------------------------------------------
       NWT REQUIRED            3 OUTER ITERATIONS 
       AND A TOTAL OF          5 INNER ITERATIONS.
    ------------------------------------------------

 NO OUTPUT CONTROL FOR STRESS PERIOD   40   TIME STEP   23
 
 SOLVING FOR HEAD 
                                                   Max.-Head-Change                         Max.-Flux-Residual
  Residual-Control   Outer-Iter.   Inner-Iter.     Column Row Layer    Maximum-Head-Change  Column Row Layer    Maximum-Flux-Residual          L2-NORM 
          0                 1           2             1    1     1       0.4369735352E-02       1   13    1         0.2324927145E+00      0.7735876839E+00
          0                 2           2             1    1     1      -0.4250567447E-03       1   13    1        -0.2273218918E-01      0.7807069122E-01
          0                 3           1             3   13     1       0.2968550978E-04       3   13    1         0.1688034820E-02      0.5784388946E-02

    ------------------------------------------------
       NWT REQUIRED            3 OUTER ITERATIONS 
       AND A TOTAL OF          5 INNER ITERATIONS.
    ------------------------------------------------

 NO OUTPUT CONTROL FOR STRESS PERIOD   40   TIME STEP   24
 
 SOLVING FOR HEAD 
                                                   Max.-Head-Change                         Max.-Flux-Residual
  Residual-Control   Outer-Iter.   Inner-Iter.     Column Row Layer    Maximum-Head-Change  Column Row Layer    Maximum-Flux-Residual          L2-NORM 
          0                 1           2             1    1     1       0.4364158558E-02       1    1    1         0.2266075533E+00      0.7612516883E+00
          0                 2           2             1    1     1      -0.4245142716E-03       1    1    1        -0.2266079806E-01      0.7671982049E-01
          0                 3           1             1    1     1       0.2890784190E-04       1    1    1         0.1586256148E-02      0.5638192394E-02

    ------------------------------------------------
       NWT REQUIRED            3 OUTER ITERATIONS 
       AND A TOTAL OF          5 INNER ITERATIONS.
    ------------------------------------------------

 NO OUTPUT CONTROL FOR STRESS PERIOD   40   TIME STEP   25
 
 SOLVING FOR HEAD 
                                                   Max.-Head-Change                         Max.-Flux-Residual
  Residual-Control   Outer-Iter.   Inner-Iter.     Column Row Layer    Maximum-Head-Change  Column Row Layer    Maximum-Flux-Residual          L2-NORM 
          0                 1           2             1    1     1       0.4358579140E-02       1    1    1         0.2263171941E+00      0.7500798395E+00
          0                 2           2             1    1     1      -0.4239715429E-03       1    1    1        -0.2263176191E-01      0.7550853753E-01
          0                 3           1             1    1     1       0.2887088395E-04       1    1    1         0.1584223617E-02      0.5511292583E-02

    ------------------------------------------------
       NWT REQUIRED            3 OUTER ITERATIONS 
       AND A TOTAL OF          5 INNER ITERATIONS.
    ------------------------------------------------

 NO OUTPUT CONTROL FOR STRESS PERIOD   40   TIME STEP   26
 
 SOLVING FOR HEAD 
                                                   Max.-Head-Change                         Max.-Flux-Residual
  Residual-Control   Outer-Iter.   Inner-Iter.     Column Row Layer    Maximum-Head-Change  Column Row Layer    Maximum-Flux-Residual          L2-NORM 
          0                 1           2             1    1     1       0.4353043674E-02       1    1    1         0.2260291216E+00      0.7399346088E+00
          0                 2           2             1    1     1      -0.4234330899E-03       1    1    1        -0.2260295446E-01      0.7441490789E-01
          0                 3           1             1    1     1       0.2883421734E-04       1    1    1         0.1582207095E-02      0.5398307453E-02

    ------------------------------------------------
       NWT REQUIRED            3 OUTER ITERATIONS 
       AND A TOTAL OF          5 INNER ITERATIONS.
    ------------------------------------------------

 NO OUTPUT CONTROL FOR STRESS PERIOD   40   TIME STEP   27
 
 SOLVING FOR HEAD 
                                                   Max.-Head-Change                         Max.-Flux-Residual
  Residual-Control   Outer-Iter.   Inner-Iter.     Column Row Layer    Maximum-Head-Change  Column Row Layer    Maximum-Flux-Residual          L2-NORM 
          0                 1           2             1    1     1       0.4347505368E-02       1    1    1         0.2257409049E+00      0.7306905838E+00
          0                 2           2             1    1     1      -0.4228943606E-03       1    1    1        -0.2257413259E-01      0.7342624285E-01
          0                 3           1             1    1     1       0.2879753180E-04       1    1    1         0.1580189556E-02      0.5299426008E-02

    ------------------------------------------------
       NWT REQUIRED            3 OUTER ITERATIONS 
       AND A TOTAL OF          5 INNER ITERATIONS.
    ------------------------------------------------

 NO OUTPUT CONTROL FOR STRESS PERIOD   40   TIME STEP   28
 
 SOLVING FOR HEAD 
                                                   Max.-Head-Change                         Max.-Flux-Residual
  Residual-Control   Outer-Iter.   Inner-Iter.     Column Row Layer    Maximum-Head-Change  Column Row Layer    Maximum-Flux-Residual          L2-NORM 
          0                 1           2             1    1     1       0.4342010802E-02       1    1    1         0.2254549644E+00      0.7222331098E+00
          0                 2           2             1    1     1      -0.4223598864E-03       1    1    1        -0.2254553834E-01      0.7252715343E-01
          0                 3           1             1    1     1       0.2876113642E-04       1    1    1         0.1578187977E-02      0.5211802697E-02

    ------------------------------------------------
       NWT REQUIRED            3 OUTER ITERATIONS 
       AND A TOTAL OF          5 INNER ITERATIONS.
    ------------------------------------------------

 NO OUTPUT CONTROL FOR STRESS PERIOD   40   TIME STEP   29
 
 SOLVING FOR HEAD 
                                                   Max.-Head-Change                         Max.-Flux-Residual
  Residual-Control   Outer-Iter.   Inner-Iter.     Column Row Layer    Maximum-Head-Change  Column Row Layer    Maximum-Flux-Residual          L2-NORM 
          0                 1           2             1    1     1       0.4336513183E-02       1    1    1         0.2251688680E+00      0.7144851708E+00
          0                 2           2             1    1     1      -0.4218251148E-03       1    1    1        -0.2251692851E-01      0.7170990036E-01
          0                 3           1             1    1     1       0.2872472021E-04       1    1    1         0.1576185281E-02      0.5135402735E-02

    ------------------------------------------------
       NWT REQUIRED            3 OUTER ITERATIONS 
       AND A TOTAL OF          5 INNER ITERATIONS.
    ------------------------------------------------

 NO OUTPUT CONTROL FOR STRESS PERIOD   40   TIME STEP   30



 STREAM LISTING     PERIOD     40   STEP       30

 LAYER ROW COL. STREAM  RCH.  FLOW INTO     FLOW TO   FLOW OUT OF   OVRLND.     DIRECT     STREAM       STREAM     STREAM     STREAM   STREAMBED  STREAMBED
                SEG.NO.  NO.  STRM. RCH.    AQUIFER    STRM. RCH.    RUNOFF     PRECIP       ET          HEAD       DEPTH      WIDTH   CONDCTNC.   GRADIENT

   1    1    1     1     1    7.3498E+01  4.1744E-01   7.3080E+01  0.000E+00  0.000E+00  0.000E+00  1.09473E+03  1.681E+00  1.982E+01  8.917E-02  1.560E+00
   1    2    2     1     2    7.3080E+01  6.4665E-01   7.2434E+01  0.000E+00  0.000E+00  0.000E+00  1.08973E+03  1.675E+00  1.976E+01  1.383E-01  1.558E+00
   1    3    3     1     3    7.2434E+01  5.5165E-01   7.1882E+01  0.000E+00  0.000E+00  0.000E+00  1.08409E+03  1.669E+00  1.969E+01  1.182E-01  1.556E+00
   1    3    4     1     4    7.1882E+01  5.0813E-01   7.1374E+01  0.000E+00  0.000E+00  0.000E+00  1.07907E+03  1.663E+00  1.963E+01  1.090E-01  1.554E+00
   1    4    5     2     1    6.9374E+01  4.0746E-01   6.8966E+01  0.000E+00  0.000E+00  0.000E+00  1.07416E+03  2.224E+00  1.200E+01  7.800E-02  1.741E+00
   1    5    6     2     2    6.8966E+01  3.1301E-01   6.8653E+01  0.000E+00  0.000E+00  0.000E+00  1.06873E+03  2.217E+00  1.200E+01  6.000E-02  1.739E+00
   1    6    6     2     3    6.8653E+01  3.1265E-01   6.8341E+01  0.000E+00  0.000E+00  0.000E+00  1.06400E+03  2.211E+00  1.200E+01  6.000E-02  1.737E+00
   1    7    6     2     4    6.8341E+01  3.1228E-01   6.8028E+01  0.000E+00  0.000E+00  0.000E+00  1.05928E+03  2.205E+00  1.200E+01  6.000E-02  1.735E+00
   1    8    6     2     5    6.8028E+01  3.1192E-01   6.7717E+01  0.000E+00  0.000E+00  0.000E+00  1.05456E+03  2.199E+00  1.200E+01  6.000E-02  1.733E+00
   1    3    5     3     1    2.0000E+00  2.8252E-01   1.7175E+00  0.000E+00  0.000E+00  0.000E+00  1.07555E+03  1.909E+00  9.636E+00  7.227E-02  1.955E+00
   1    3    6     3     2    1.7175E+00  2.4905E-01   1.4684E+00  0.000E+00  0.000E+00  0.000E+00  1.07264E+03  1.727E+00  8.909E+00  6.682E-02  1.864E+00
   1    3    7     3     3    1.4684E+00  1.9718E-01   1.2712E+00  0.000E+00  0.000E+00  0.000E+00  1.06987E+03  1.555E+00  8.218E+00  5.547E-02  1.777E+00
   1    4    8     3     4    1.2712E+00  2.2567E-01   1.0456E+00  0.000E+00  0.000E+00  0.000E+00  1.06682E+03  1.364E+00  7.455E+00  6.709E-02  1.682E+00
   1    5    8     3     5    1.0456E+00  1.5790E-01   8.8768E-01  0.000E+00  0.000E+00  0.000E+00  1.06362E+03  1.164E+00  6.655E+00  4.991E-02  1.582E+00
   1    6    8     3     6    8.8768E-01  5.5980E-02   8.3170E-01  0.000E+00  0.000E+00  0.000E+00  1.06158E+03  1.036E+00  6.145E+00  1.844E-02  1.518E+00
   1    5   10     4     1    1.0000E+01  9.0919E-02   9.9091E+00  0.000E+00  0.000E+00  0.000E+00  1.07836E+03  6.368E-01  1.000E+01  2.500E-02  1.212E+00
   1    5    9     4     2    9.9091E+00  1.8158E-01   9.7275E+00  0.000E+00  0.000E+00  0.000E+00  1.07154E+03  6.315E-01  1.000E+01  5.000E-02  1.211E+00
   1    6    8     4     3    9.7275E+00  1.2689E-01   9.6006E+00  0.000E+00  0.000E+00  0.000E+00  1.06381E+03  6.256E-01  1.000E+01  3.500E-02  1.209E+00
   1    6    8     5     1    1.0432E+01  2.2686E-01   1.0205E+01  0.000E+00  0.000E+00  0.000E+00  1.05868E+03  6.790E-01  1.542E+01  6.166E-02  1.226E+00
   1    7    7     5     2    1.0205E+01  2.7894E-01   9.9265E+00  0.000E+00  0.000E+00  0.000E+00  1.05417E+03  6.732E-01  1.519E+01  7.594E-02  1.224E+00
   1    8    7     5     3    9.9265E+00  1.9221E-01   9.7343E+00  0.000E+00  0.000E+00  0.000E+00  1.04992E+03  6.676E-01  1.497E+01  5.241E-02  1.223E+00
   1    8    6     5     4    9.7343E+00  1.3577E-01   9.5985E+00  0.000E+00  0.000E+00  0.000E+00  1.04691E+03  6.637E-01  1.482E+01  3.706E-02  1.221E+00
   1    9    6     6     1    7.7315E+01  3.2406E-01   7.6991E+01  0.000E+00  0.000E+00  0.000E+00  1.04513E+03  2.401E+00  1.200E+01  6.000E-02  1.800E+00
   1   10    7     6     2    7.6991E+01  3.2369E-01   7.6667E+01  0.000E+00  0.000E+00  0.000E+00  1.04058E+03  2.395E+00  1.200E+01  6.000E-02  1.798E+00
   1   11    7     6     3    7.6667E+01  3.2333E-01   7.6344E+01  0.000E+00  0.000E+00  0.000E+00  1.03603E+03  2.389E+00  1.200E+01  6.000E-02  1.796E+00
   1   12    7     6     4    7.6344E+01  3.2297E-01   7.6021E+01  0.000E+00  0.000E+00  0.000E+00  1.03147E+03  2.383E+00  1.200E+01  6.000E-02  1.794E+00
   1   13    7     6     5    7.6021E+01  3.1954E-02   7.5989E+01  0.000E+00  0.000E+00  0.000E+00  1.02829E+03  2.379E+00  1.200E+01  2.400E-02  4.438E-01
   1   14    9     7     1    1.5000E+02  1.3505E+00   1.4865E+02  0.000E+00  0.000E+00  0.000E+00  1.03987E+03  2.288E+00  5.529E+01  5.593E-01  8.049E-01
   1   13    8     7     2    1.4865E+02  1.8787E+00   1.4677E+02  0.000E+00  0.000E+00  0.000E+00  1.03478E+03  2.279E+00  5.526E+01  6.148E-01  1.019E+00
   1   13    7     7     3    1.4677E+02  1.5258E+00   1.4525E+02  0.000E+00  0.000E+00  0.000E+00  1.02969E+03  2.270E+00  5.522E+01  5.584E-01  9.107E-01
   1   13    6     8     1    2.2123E+02  1.1905E+00   2.2004E+02  0.000E+00  0.000E+00  0.000E+00  1.02513E+03  3.255E+00  4.720E+01  4.810E-01  8.250E-01
   1   13    5     8     2    2.2004E+02  3.5150E-01   2.1969E+02  0.000E+00  0.000E+00  0.000E+00  1.01888E+03  3.251E+00  4.714E+01  4.804E-01  2.439E-01
   1   13    4     8     3    2.1969E+02 -2.0508E+00   2.2174E+02  0.000E+00  0.000E+00  0.000E+00  1.01263E+03  3.256E+00  4.721E+01  4.811E+00 -1.421E-01
   1   13    3     8     4    2.2174E+02 -3.4498E+00   2.2519E+02  0.000E+00  0.000E+00  0.000E+00  1.00640E+03  3.271E+00  4.743E+01  4.833E+00 -2.379E-01
   1   13    2     8     5    2.2519E+02 -2.3919E+00   2.2758E+02  0.000E+00  0.000E+00  0.000E+00  1.00016E+03  3.287E+00  4.766E+01  4.857E+00 -1.642E-01
   1   13    1     8     6    2.2758E+02 -1.8087E+00   2.2939E+02  0.000E+00  0.000E+00  0.000E+00  9.95173E+02  3.298E+00  4.783E+01  2.924E+00 -2.062E-01
   1    8    6     9     1    0.0000E+00  0.0000E+00   0.0000E+00  0.000E+00  0.000E+00  0.000E+00  1.07875E+03  0.000E+00  4.000E+00  0.000E+00  1.000E+00
   1    8    5     9     2    0.0000E+00  0.0000E+00   0.0000E+00  0.000E+00  0.000E+00  0.000E+00  1.07825E+03  0.000E+00  4.000E+00  0.000E+00  1.000E+00





UNSATURATED ZONE PACKAGE VOLUMETRIC BUDGET FOR  TIME STEP    30 STRESS PERIOD   40
  ------------------------------------------------------------------------------



     CUMULATIVE VOLUMES      L**3       RATES FOR THIS TIME STEP      L**3/T
     ------------------                 ------------------------

           IN:                                      IN:
           ---                                      ---
        INFILTRATION =  1894467811.3503          INFILTRATION =           4.4075

          OUT:                                     OUT:
          ----                                     ----
              UZF ET =  1499040022.4385                UZF ET =           0.7250
        UZF RECHARGE =    79886127.6298          UZF RECHARGE =           0.1126

            IN - OUT =   315541661.2820              IN - OUT =           3.5699

          STORAGE:                                 STORAGE:
          --------                                 --------
      STORAGE CHANGE =   315542786.1246        STORAGE CHANGE =           3.5699

 PERCENT DISCREPANCY IS DIFFERENCE BETWEEN IN-OUT MINUS CHANGE IN STORAGE
 DIVIDED BY THE AVERAGE OF IN AND OUT TIMES 100

 PERCENT DISCREPANCY =          -0.00     PERCENT DISCREPANCY =          -0.00






1
  VOLUMETRIC BUDGET FOR AGRICULTURAL FIELDS AT  END OF TIME STEP   30, STRESS PERIOD  40
  ------------------------------------------------------------------------------

     CUMULATIVE VOLUMES      L**3       RATES FOR THIS TIME STEP      L**3/T
     ------------------                 ------------------------

           IN:                                      IN:
           ---                                      ---
               AG WELLS  =   514772736.0000                 AG WELLS  =           0.0000
      DIVERSION SEGMENTS =   927926528.0000        DIVERSION SEGMENTS =           0.0000
           GW IRRIGATION =           0.0000             GW IRRIGATION =           0.0000
           SW IRRIGATION =           0.0000             SW IRRIGATION =           0.0000
        SYSTEM LOSSES GW =           0.0000          SYSTEM LOSSES GW =           0.0000
        SYSTEM LOSSES SW =           0.0000          SYSTEM LOSSES SW =           0.0000

                TOTAL IN =  1442699264.0000                  TOTAL IN =           0.0000

          OUT:                                     OUT:
          ----                                     ----
               AG WELLS  =           0.0000                 AG WELLS  =           0.0000
      DIVERSION SEGMENTS =           0.0000        DIVERSION SEGMENTS =           0.0000
           GW IRRIGATION =   514772736.0000             GW IRRIGATION =           0.0000
           SW IRRIGATION =   927944192.0000             SW IRRIGATION =           0.0000
        SYSTEM LOSSES GW =           0.0000          SYSTEM LOSSES GW =           0.0000
        SYSTEM LOSSES SW =           0.0000          SYSTEM LOSSES SW =           0.0000

               TOTAL OUT =  1442716928.0000                 TOTAL OUT =           0.0000

                IN - OUT =      -17664.0000                  IN - OUT =           0.0000

     PERCENT DISCREPANCY =          -0.00         PERCENT DISCREPANCY =           0.00



1
  VOLUMETRIC BUDGET FOR ENTIRE MODEL AT END OF TIME STEP   30, STRESS PERIOD  40
  ------------------------------------------------------------------------------

     CUMULATIVE VOLUMES      L**3       RATES FOR THIS TIME STEP      L**3/T
     ------------------                 ------------------------

           IN:                                      IN:
           ---                                      ---
             STORAGE     =   869459840.0000               STORAGE     =           0.6689
       CONSTANT HEAD     =           0.0000         CONSTANT HEAD     =           0.0000
     HEAD DEP BOUNDS     =    29361078.0000       HEAD DEP BOUNDS     =           0.2868
      STREAM LEAKAGE     =  1234739584.0000        STREAM LEAKAGE     =          13.8056
        UZF RECHARGE     =    79886120.0000          UZF RECHARGE     =           0.1126
               GW ET     =           0.0000                 GW ET     =           0.0000
     SURFACE LEAKAGE     =           0.0000       SURFACE LEAKAGE     =           0.0000
           AG WELLS      =           0.0000             AG WELLS      =           0.0000

                TOTAL IN =  2213446656.0000                  TOTAL IN =          14.8739

          OUT:                                     OUT:
          ----                                     ----
             STORAGE     =   575001216.0000               STORAGE     =           4.8776
       CONSTANT HEAD     =           0.0000         CONSTANT HEAD     =           0.0000
     HEAD DEP BOUNDS     =    29838480.0000       HEAD DEP BOUNDS     =           0.2961
      STREAM LEAKAGE     =  1091230848.0000        STREAM LEAKAGE     =           9.7011
        UZF RECHARGE     =           0.0000          UZF RECHARGE     =           0.0000
               GW ET     =     2603293.0000                 GW ET     =       1.2550E-12
     SURFACE LEAKAGE     =           0.0000       SURFACE LEAKAGE     =           0.0000
           AG WELLS      =   514772736.0000             AG WELLS      =           0.0000

               TOTAL OUT =  2213446656.0000                 TOTAL OUT =          14.8748

                IN - OUT =           0.0000                  IN - OUT =      -9.2411E-04

     PERCENT DISCREPANCY =           0.00         PERCENT DISCREPANCY =          -0.01






         TIME SUMMARY AT END OF TIME STEP   30 IN STRESS PERIOD   40
                    SECONDS     MINUTES      HOURS       DAYS        YEARS
                    -----------------------------------------------------------
   TIME STEP LENGTH  87667.      1461.1      24.352      1.0147     2.77799E-03
 STRESS PERIOD TIME 2.63000E+06  43833.      730.56      30.440     8.33397E-02
         TOTAL TIME 1.02656E+08 1.71093E+06  28515.      1188.1      3.2530    
1
1
                            STRESS PERIOD NO.   41, LENGTH =   2630000.    
                            -----------------------------------------------

                              NUMBER OF TIME STEPS =    30

                               MULTIPLIER FOR DELT =     1.000

                            INITIAL TIME STEP SIZE =   87666.66    

 REUSING NON-PARAMETER GHB CELLS FROM LAST STRESS PERIOD

      2 GHB CELLS

 REUSING STREAM SEGMENT DATA FROM LAST STRESS PERIOD



            AREAL INFILTRATION RATE
 READING ON UNIT   19 WITH FORMAT: (10F4.0)            

            1           2           3           4           5           6           7           8           9          10
 ........................................................................................................................
   1   1.2000E-09   0.000       0.000       0.000       0.000       0.000       0.000       0.000       0.000       0.000    
   2   2.1000E-09  2.0000E-09  8.0000E-10  8.5000E-09   0.000       0.000       0.000       0.000       0.000       0.000    
   3   5.0000E-10  1.1000E-09  8.8000E-09  5.5000E-09   0.000       0.000       0.000       0.000       0.000       0.000    
   4   8.5000E-09  1.1000E-09  1.1000E-09  1.1000E-09  2.0000E-09   0.000       0.000       0.000       0.000       0.000    
   5   8.5000E-09  1.1000E-09  1.1000E-09  1.1000E-09  1.1000E-09   0.000       0.000       0.000       0.000       0.000    
   6   8.5000E-09  5.2000E-09  2.1000E-09  1.1000E-09  1.5000E-09   0.000       0.000       0.000       0.000       0.000    
   7   8.5000E-09  5.2000E-09  2.1000E-09  1.2000E-09  2.0000E-09   0.000       0.000       0.000       0.000       0.000    
   8   5.0000E-10  5.2000E-09  2.1000E-09  1.2000E-09  5.0000E-09   0.000       0.000       0.000       0.000       0.000    
   9   5.0000E-10  5.2000E-09  2.1000E-09  1.2000E-09  5.0000E-09   0.000       0.000       0.000       0.000       0.000    
  10   5.0000E-10  5.2000E-09  2.1000E-09  1.2000E-09  5.8000E-09   0.000       0.000       0.000       0.000       0.000    
  11   1.0000E-10  1.1000E-09  1.1000E-09  1.2000E-09  5.0000E-09   0.000       0.000       0.000       0.000       0.000    
  12   1.1000E-09  1.1000E-09  1.1000E-09  1.1000E-09  2.0000E-09   0.000       0.000       0.000       0.000       0.000    
  13   1.1000E-09  2.2000E-09  2.2000E-09  2.1000E-09  1.0000E-09   0.000       0.000       0.000       0.000       0.000    
  14   2.0000E-10  5.5000E-09  5.5000E-09  5.2000E-09  1.0000E-09   0.000       0.000       0.000       0.000       0.000    
  15    0.000      8.8000E-09  8.8000E-09   0.000       0.000       0.000       0.000       0.000       0.000       0.000    

                  ET RATE =  2.500000E-08

 USING ET EXTINCTION DEPTH FROM PREVIOUS STRESS PERIOD. CURRENT PERIOD IS:      41

 USING EXTINCTION WATER CONTENT FROM PREVIOUS STRESS PERIOD. CURRENT PERIOD IS:      41

 USING AIR ENTRY PRESSURE FROM PREVIOUS STRESS PERIOD. CURRENT PERIOD IS:      41

 USING ROOT PRESSURE HEAD FROM PREVIOUS STRESS PERIOD. CURRENT PERIOD IS:      41

 USING ROOT ACTIVITY FROM PREVIOUS STRESS PERIOD. CURRENT PERIOD IS:      41

 PROCESSING AG STRESS PERIOD DATA

 READING AG STRESS PERIOD DATA

 READING IRRIGATION SEGMENT

 READING IRRIGATION WELL

 READING SUPPLEMENTAL WELL

 END PROCESSING AG STRESS PERIOD DATA OPTIONS
 
 SOLVING FOR HEAD 
                                                   Max.-Head-Change                         Max.-Flux-Residual
  Residual-Control   Outer-Iter.   Inner-Iter.     Column Row Layer    Maximum-Head-Change  Column Row Layer    Maximum-Flux-Residual          L2-NORM 
          0                 1           2             1    1     1       0.4331035741E-02       1    1    1         0.2248838252E+00      0.7073534213E+00
          0                 2           2             1    1     1      -0.4212923060E-03       1    1    1        -0.2248842402E-01      0.7095959779E-01
          0                 3           1             1    1     1       0.2868843773E-04       1    1    1         0.1574189959E-02      0.5065137544E-02

    ------------------------------------------------
       NWT REQUIRED            3 OUTER ITERATIONS 
       AND A TOTAL OF          5 INNER ITERATIONS.
    ------------------------------------------------

 NO OUTPUT CONTROL FOR STRESS PERIOD   41   TIME STEP    1
 
 SOLVING FOR HEAD 
                                                   Max.-Head-Change                         Max.-Flux-Residual
  Residual-Control   Outer-Iter.   Inner-Iter.     Column Row Layer    Maximum-Head-Change  Column Row Layer    Maximum-Flux-Residual          L2-NORM 
          0                 1           2             1    1     1       0.4325578363E-02       1    1    1         0.2245998285E+00      0.6986268605E+00
          0                 2           2             1    1     1      -0.4207614490E-03       1    1    1        -0.2246002417E-01      0.6982902466E-01
          0                 3           1             1    1     1       0.2865228849E-04       1    1    1         0.1572201978E-02      0.4891416944E-02

    ------------------------------------------------
       NWT REQUIRED            3 OUTER ITERATIONS 
       AND A TOTAL OF          5 INNER ITERATIONS.
    ------------------------------------------------

 NO OUTPUT CONTROL FOR STRESS PERIOD   41   TIME STEP    2
 
 SOLVING FOR HEAD 
                                                   Max.-Head-Change                         Max.-Flux-Residual
  Residual-Control   Outer-Iter.   Inner-Iter.     Column Row Layer    Maximum-Head-Change  Column Row Layer    Maximum-Flux-Residual          L2-NORM 
          0                 1           2             1    1     1       0.4320164276E-02       1    1    1         0.2243180845E+00      0.6921926088E+00
          0                 2           2             1    1     1      -0.4202348026E-03       1    1    1        -0.2243184955E-01      0.6916265718E-01
          0                 3           1             1    1     1       0.2861642610E-04       1    1    1         0.1570229758E-02      0.4836057486E-02

    ------------------------------------------------
       NWT REQUIRED            3 OUTER ITERATIONS 
       AND A TOTAL OF          5 INNER ITERATIONS.
    ------------------------------------------------

 NO OUTPUT CONTROL FOR STRESS PERIOD   41   TIME STEP    3
 
 SOLVING FOR HEAD 
                                                   Max.-Head-Change                         Max.-Flux-Residual
  Residual-Control   Outer-Iter.   Inner-Iter.     Column Row Layer    Maximum-Head-Change  Column Row Layer    Maximum-Flux-Residual          L2-NORM 
          0                 1           2             1    1     1       0.4235754608E-02       1    1    1         0.2199327152E+00      0.6722160807E+00
          0                 2           2             1    1     1      -0.4120240146E-03       1    1    1        -0.2199331071E-01      0.6714835923E-01
          0                 3           1             1    1     1       0.2805730230E-04       1    1    1         0.1539532048E-02      0.4696893920E-02

    ------------------------------------------------
       NWT REQUIRED            3 OUTER ITERATIONS 
       AND A TOTAL OF          5 INNER ITERATIONS.
    ------------------------------------------------

 NO OUTPUT CONTROL FOR STRESS PERIOD   41   TIME STEP    4
 
 SOLVING FOR HEAD 
                                                   Max.-Head-Change                         Max.-Flux-Residual
  Residual-Control   Outer-Iter.   Inner-Iter.     Column Row Layer    Maximum-Head-Change  Column Row Layer    Maximum-Flux-Residual          L2-NORM 
          0                 1           2             3   13     1      -0.7312333979E-02       3   13    1        -0.4243146166E+00      0.8283293150E+00
          0                 2           2             3   13     1       0.6906590549E-03       3   13    1         0.4121377095E-01      0.8099195277E-01
          0                 3           1             3   13     1      -0.4563744570E-04       3   13    1        -0.2800010337E-02      0.5562976439E-02

    ------------------------------------------------
       NWT REQUIRED            3 OUTER ITERATIONS 
       AND A TOTAL OF          5 INNER ITERATIONS.
    ------------------------------------------------

 NO OUTPUT CONTROL FOR STRESS PERIOD   41   TIME STEP    5
 
 SOLVING FOR HEAD 
                                                   Max.-Head-Change                         Max.-Flux-Residual
  Residual-Control   Outer-Iter.   Inner-Iter.     Column Row Layer    Maximum-Head-Change  Column Row Layer    Maximum-Flux-Residual          L2-NORM 
          0                 1           2             3   13     1      -0.6954940571E-02       3   13    1        -0.4047251808E+00      0.8208184666E+00
          0                 2           2             3   13     1       0.6610449168E-03       3   13    1         0.3955087507E-01      0.8093284593E-01
          0                 3           1             3   13     1      -0.4356637778E-04       3   13    1        -0.2679939047E-02      0.5559699385E-02

    ------------------------------------------------
       NWT REQUIRED            3 OUTER ITERATIONS 
       AND A TOTAL OF          5 INNER ITERATIONS.
    ------------------------------------------------

 NO OUTPUT CONTROL FOR STRESS PERIOD   41   TIME STEP    6
 
 SOLVING FOR HEAD 
                                                   Max.-Head-Change                         Max.-Flux-Residual
  Residual-Control   Outer-Iter.   Inner-Iter.     Column Row Layer    Maximum-Head-Change  Column Row Layer    Maximum-Flux-Residual          L2-NORM 
          0                 1           2             3   13     1      -0.6217222269E-02       3   13    1        -0.3618142131E+00      0.7710316242E+00
          0                 2           2             3   13     1       0.5910512127E-03       3   13    1         0.3536501344E-01      0.7611247296E-01
          0                 3           1             3   13     1      -0.3897311061E-04       3   13    1        -0.2397493898E-02      0.5238472970E-02

    ------------------------------------------------
       NWT REQUIRED            3 OUTER ITERATIONS 
       AND A TOTAL OF          5 INNER ITERATIONS.
    ------------------------------------------------

 NO OUTPUT CONTROL FOR STRESS PERIOD   41   TIME STEP    7
 
 SOLVING FOR HEAD 
                                                   Max.-Head-Change                         Max.-Flux-Residual
  Residual-Control   Outer-Iter.   Inner-Iter.     Column Row Layer    Maximum-Head-Change  Column Row Layer    Maximum-Flux-Residual          L2-NORM 
          0                 1           2             3   13     1      -0.5557325201E-02       3   13    1        -0.3234302785E+00      0.7286506062E+00
          0                 2           2             3   13     1       0.5284155434E-03       3   13    1         0.3161922734E-01      0.7201451444E-01
          0                 3           1             3   13     1      -0.3484676276E-04       3   13    1        -0.2143827453E-02      0.4962927869E-02

    ------------------------------------------------
       NWT REQUIRED            3 OUTER ITERATIONS 
       AND A TOTAL OF          5 INNER ITERATIONS.
    ------------------------------------------------

 NO OUTPUT CONTROL FOR STRESS PERIOD   41   TIME STEP    8
 
 SOLVING FOR HEAD 
                                                   Max.-Head-Change                         Max.-Flux-Residual
  Residual-Control   Outer-Iter.   Inner-Iter.     Column Row Layer    Maximum-Head-Change  Column Row Layer    Maximum-Flux-Residual          L2-NORM 
          0                 1           2             3   13     1      -0.4967041124E-02       3   13    1        -0.2890960055E+00      0.6927263804E+00
          0                 2           2             3   13     1       0.4723952315E-03       3   13    1         0.2826910323E-01      0.6854704534E-01
          0                 3           1             3   13     1      -0.3115963720E-04       3   13    1        -0.1917114518E-02      0.4732115395E-02

    ------------------------------------------------
       NWT REQUIRED            3 OUTER ITERATIONS 
       AND A TOTAL OF          5 INNER ITERATIONS.
    ------------------------------------------------

 NO OUTPUT CONTROL FOR STRESS PERIOD   41   TIME STEP    9
 
 SOLVING FOR HEAD 
                                                   Max.-Head-Change                         Max.-Flux-Residual
  Residual-Control   Outer-Iter.   Inner-Iter.     Column Row Layer    Maximum-Head-Change  Column Row Layer    Maximum-Flux-Residual          L2-NORM 
          0                 1           2             3   13     1      -0.4439005669E-02       3   13    1        -0.2583829846E+00      0.6623927248E+00
          0                 2           2             3   13     1       0.4222788348E-03       3   13    1         0.2527209426E-01      0.6562383486E-01
          0                 3           1             3   13     1      -0.2787747049E-04       3   13    1        -0.1715337057E-02      0.4537873087E-02

    ------------------------------------------------
       NWT REQUIRED            3 OUTER ITERATIONS 
       AND A TOTAL OF          5 INNER ITERATIONS.
    ------------------------------------------------

 NO OUTPUT CONTROL FOR STRESS PERIOD   41   TIME STEP   10
 
 SOLVING FOR HEAD 
                                                   Max.-Head-Change                         Max.-Flux-Residual
  Residual-Control   Outer-Iter.   Inner-Iter.     Column Row Layer    Maximum-Head-Change  Column Row Layer    Maximum-Flux-Residual          L2-NORM 
          0                 1           2             3   13     1      -0.3966646100E-02       3   13    1        -0.2309090517E+00      0.6368556938E+00
          0                 2           2             3   13     1       0.3774255897E-03       3   13    1         0.2258988704E-01      0.6316571634E-01
          0                 3           1             3   13     1      -0.2493093476E-04       3   13    1        -0.1534202260E-02      0.4374177563E-02

    ------------------------------------------------
       NWT REQUIRED            3 OUTER ITERATIONS 
       AND A TOTAL OF          5 INNER ITERATIONS.
    ------------------------------------------------

 NO OUTPUT CONTROL FOR STRESS PERIOD   41   TIME STEP   11
 
 SOLVING FOR HEAD 
                                                   Max.-Head-Change                         Max.-Flux-Residual
  Residual-Control   Outer-Iter.   Inner-Iter.     Column Row Layer    Maximum-Head-Change  Column Row Layer    Maximum-Flux-Residual          L2-NORM 
          0                 1           2             3   13     1      -0.3544200017E-02       3   13    1        -0.2063389162E+00      0.6154188594E+00
          0                 2           2             3   13     1       0.3373062422E-03       3   13    1         0.2019080957E-01      0.6110536466E-01
          0                 3           1             3   13     1      -0.2226655724E-04       3   13    1        -0.1370362861E-02      0.4237595878E-02

    ------------------------------------------------
       NWT REQUIRED            3 OUTER ITERATIONS 
       AND A TOTAL OF          5 INNER ITERATIONS.
    ------------------------------------------------

 NO OUTPUT CONTROL FOR STRESS PERIOD   41   TIME STEP   12
 
 SOLVING FOR HEAD 
                                                   Max.-Head-Change                         Max.-Flux-Residual
  Residual-Control   Outer-Iter.   Inner-Iter.     Column Row Layer    Maximum-Head-Change  Column Row Layer    Maximum-Flux-Residual          L2-NORM 
          0                 1           2             3   13     1      -0.3166067753E-02       3   13    1        -0.1843467507E+00      0.5974584197E+00
          0                 2           2             1    1     1      -0.3066312312E-03       3   13    1         0.1803280116E-01      0.5937686171E-01
          0                 3           1             1    1     1       0.2088044757E-04       3   13    1        -0.1224598095E-02      0.4122727766E-02

    ------------------------------------------------
       NWT REQUIRED            3 OUTER ITERATIONS 
       AND A TOTAL OF          5 INNER ITERATIONS.
    ------------------------------------------------

 NO OUTPUT CONTROL FOR STRESS PERIOD   41   TIME STEP   13
 
 SOLVING FOR HEAD 
                                                   Max.-Head-Change                         Max.-Flux-Residual
  Residual-Control   Outer-Iter.   Inner-Iter.     Column Row Layer    Maximum-Head-Change  Column Row Layer    Maximum-Flux-Residual          L2-NORM 
          0                 1           2             1    1     1       0.3148938934E-02       3   13    1        -0.1646917613E+00      0.5824304958E+00
          0                 2           2             1    1     1      -0.3063061743E-03       1    1    1        -0.1634727774E-01      0.5793823143E-01
          0                 3           1             1    1     1       0.2085831223E-04       1    1    1         0.1144309752E-02      0.4027928330E-02

    ------------------------------------------------
       NWT REQUIRED            3 OUTER ITERATIONS 
       AND A TOTAL OF          5 INNER ITERATIONS.
    ------------------------------------------------

 NO OUTPUT CONTROL FOR STRESS PERIOD   41   TIME STEP   14
 
 SOLVING FOR HEAD 
                                                   Max.-Head-Change                         Max.-Flux-Residual
  Residual-Control   Outer-Iter.   Inner-Iter.     Column Row Layer    Maximum-Head-Change  Column Row Layer    Maximum-Flux-Residual          L2-NORM 
          0                 1           2             1    1     1       0.3145584779E-02       1    1    1         0.1632981141E+00      0.5698617307E+00
          0                 2           2             1    1     1      -0.3059799049E-03       1    1    1        -0.1632983008E-01      0.5673362654E-01
          0                 3           1             1    1     1       0.2083609429E-04       1    1    1         0.1143088413E-02      0.3948439802E-02

    ------------------------------------------------
       NWT REQUIRED            3 OUTER ITERATIONS 
       AND A TOTAL OF          5 INNER ITERATIONS.
    ------------------------------------------------

 NO OUTPUT CONTROL FOR STRESS PERIOD   41   TIME STEP   15
 
 SOLVING FOR HEAD 
                                                   Max.-Head-Change                         Max.-Flux-Residual
  Residual-Control   Outer-Iter.   Inner-Iter.     Column Row Layer    Maximum-Head-Change  Column Row Layer    Maximum-Flux-Residual          L2-NORM 
          0                 1           2             1    1     1       0.3142264863E-02       1    1    1         0.1631254198E+00      0.5593400588E+00
          0                 2           2             1    1     1      -0.3056569668E-03       1    1    1        -0.1631256060E-01      0.5572419051E-01
          0                 3           1             1    1     1       0.2081410355E-04       1    1    1         0.1141879557E-02      0.3881468596E-02

    ------------------------------------------------
       NWT REQUIRED            3 OUTER ITERATIONS 
       AND A TOTAL OF          5 INNER ITERATIONS.
    ------------------------------------------------

 NO OUTPUT CONTROL FOR STRESS PERIOD   41   TIME STEP   16
 
 SOLVING FOR HEAD 
                                                   Max.-Head-Change                         Max.-Flux-Residual
  Residual-Control   Outer-Iter.   Inner-Iter.     Column Row Layer    Maximum-Head-Change  Column Row Layer    Maximum-Flux-Residual          L2-NORM 
          0                 1           2             1    1     1       0.3138932328E-02       1    1    1         0.1629520733E+00      0.5505189847E+00
          0                 2           2             1    1     1      -0.3053328007E-03       1    1    1        -0.1629522585E-01      0.5487881956E-01
          0                 3           1             1    1     1       0.2079202904E-04       1    1    1         0.1140666123E-02      0.3825429871E-02

    ------------------------------------------------
       NWT REQUIRED            3 OUTER ITERATIONS 
       AND A TOTAL OF          5 INNER ITERATIONS.
    ------------------------------------------------

 NO OUTPUT CONTROL FOR STRESS PERIOD   41   TIME STEP   17
 
 SOLVING FOR HEAD 
                                                   Max.-Head-Change                         Max.-Flux-Residual
  Residual-Control   Outer-Iter.   Inner-Iter.     Column Row Layer    Maximum-Head-Change  Column Row Layer    Maximum-Flux-Residual          L2-NORM 
          0                 1           2             1    1     1       0.3135610574E-02       1    1    1         0.1627792862E+00      0.5431072766E+00
          0                 2           2             1    1     1      -0.3050096838E-03       1    1    1        -0.1627794709E-01      0.5416883825E-01
          0                 3           1             1    1     1       0.2077002600E-04       1    1    1         0.1139456616E-02      0.3778977301E-02

    ------------------------------------------------
       NWT REQUIRED            3 OUTER ITERATIONS 
       AND A TOTAL OF          5 INNER ITERATIONS.
    ------------------------------------------------

 NO OUTPUT CONTROL FOR STRESS PERIOD   41   TIME STEP   18
 
 SOLVING FOR HEAD 
                                                   Max.-Head-Change                         Max.-Flux-Residual
  Residual-Control   Outer-Iter.   Inner-Iter.     Column Row Layer    Maximum-Head-Change  Column Row Layer    Maximum-Flux-Residual          L2-NORM 
          0                 1           2             1    1     1       0.3132322900E-02       1    1    1         0.1626082721E+00      0.5368620575E+00
          0                 2           2             1    1     1      -0.3046898815E-03       1    1    1        -0.1626084560E-01      0.5356916335E-01
          0                 3           1             1    1     1       0.2074824850E-04       1    1    1         0.1138259500E-02      0.3738778590E-02

    ------------------------------------------------
       NWT REQUIRED            3 OUTER ITERATIONS 
       AND A TOTAL OF          5 INNER ITERATIONS.
    ------------------------------------------------

 NO OUTPUT CONTROL FOR STRESS PERIOD   41   TIME STEP   19
 
 SOLVING FOR HEAD 
                                                   Max.-Head-Change                         Max.-Flux-Residual
  Residual-Control   Outer-Iter.   Inner-Iter.     Column Row Layer    Maximum-Head-Change  Column Row Layer    Maximum-Flux-Residual          L2-NORM 
          0                 1           2             1    1     1       0.3129022436E-02       1    1    1         0.1624365970E+00      0.5315742182E+00
          0                 2           2             1    1     1      -0.3043688352E-03       1    1    1        -0.1624367800E-01      0.5306050605E-01
          0                 3           1             1    1     1       0.2072638676E-04       1    1    1         0.1137057782E-02      0.3704401925E-02

    ------------------------------------------------
       NWT REQUIRED            3 OUTER ITERATIONS 
       AND A TOTAL OF          5 INNER ITERATIONS.
    ------------------------------------------------

 NO OUTPUT CONTROL FOR STRESS PERIOD   41   TIME STEP   20
 
 SOLVING FOR HEAD 
                                                   Max.-Head-Change                         Max.-Flux-Residual
  Residual-Control   Outer-Iter.   Inner-Iter.     Column Row Layer    Maximum-Head-Change  Column Row Layer    Maximum-Flux-Residual          L2-NORM 
          0                 1           2             1    1     1       0.3125732591E-02       1    1    1         0.1622654728E+00      0.5270761253E+00
          0                 2           2             1    1     1      -0.3040488217E-03       1    1    1        -0.1622656551E-01      0.5262871208E-01
          0                 3           1             1    1     1       0.2070459483E-04       1    1    1         0.1135859899E-02      0.3676641243E-02

    ------------------------------------------------
       NWT REQUIRED            3 OUTER ITERATIONS 
       AND A TOTAL OF          5 INNER ITERATIONS.
    ------------------------------------------------

 NO OUTPUT CONTROL FOR STRESS PERIOD   41   TIME STEP   21
 
 SOLVING FOR HEAD 
                                                   Max.-Head-Change                         Max.-Flux-Residual
  Residual-Control   Outer-Iter.   Inner-Iter.     Column Row Layer    Maximum-Head-Change  Column Row Layer    Maximum-Flux-Residual          L2-NORM 
          0                 1           2             1    1     1       0.3122476671E-02       1    1    1         0.1620961134E+00      0.5232272840E+00
          0                 2           2             1    1     1      -0.3037321082E-03       1    1    1        -0.1620962949E-01      0.5225852178E-01
          0                 3           1             1    1     1       0.2068302798E-04       1    1    1         0.1134674384E-02      0.3652251336E-02

    ------------------------------------------------
       NWT REQUIRED            3 OUTER ITERATIONS 
       AND A TOTAL OF          5 INNER ITERATIONS.
    ------------------------------------------------

 NO OUTPUT CONTROL FOR STRESS PERIOD   41   TIME STEP   22
 
 SOLVING FOR HEAD 
                                                   Max.-Head-Change                         Max.-Flux-Residual
  Residual-Control   Outer-Iter.   Inner-Iter.     Column Row Layer    Maximum-Head-Change  Column Row Layer    Maximum-Flux-Residual          L2-NORM 
          0                 1           2             1    1     1       0.3119207842E-02       1    1    1         0.1619260844E+00      0.5199038085E+00
          0                 2           2             1    1     1      -0.3034141394E-03       1    1    1        -0.1619262652E-01      0.5193816398E-01
          0                 3           1             1    1     1       0.2066137545E-04       1    1    1         0.1133484172E-02      0.3630786155E-02

    ------------------------------------------------
       NWT REQUIRED            3 OUTER ITERATIONS 
       AND A TOTAL OF          5 INNER ITERATIONS.
    ------------------------------------------------

 NO OUTPUT CONTROL FOR STRESS PERIOD   41   TIME STEP   23
 
 SOLVING FOR HEAD 
                                                   Max.-Head-Change                         Max.-Flux-Residual
  Residual-Control   Outer-Iter.   Inner-Iter.     Column Row Layer    Maximum-Head-Change  Column Row Layer    Maximum-Flux-Residual          L2-NORM 
          0                 1           2             1    1     1       0.3115949454E-02       1    1    1         0.1617566004E+00      0.5170318988E+00
          0                 2           2             1    1     1      -0.3030971855E-03       1    1    1        -0.1617567803E-01      0.5166045228E-01
          0                 3           1             1    1     1       0.2063979179E-04       1    1    1         0.1132297765E-02      0.3612293246E-02

    ------------------------------------------------
       NWT REQUIRED            3 OUTER ITERATIONS 
       AND A TOTAL OF          5 INNER ITERATIONS.
    ------------------------------------------------

 NO OUTPUT CONTROL FOR STRESS PERIOD   41   TIME STEP   24
 
 SOLVING FOR HEAD 
                                                   Max.-Head-Change                         Max.-Flux-Residual
  Residual-Control   Outer-Iter.   Inner-Iter.     Column Row Layer    Maximum-Head-Change  Column Row Layer    Maximum-Flux-Residual          L2-NORM 
          0                 1           2             1    1     1       0.3112701475E-02       1    1    1         0.1615876578E+00      0.5145191424E+00
          0                 2           2             1    1     1      -0.3027812452E-03       1    1    1        -0.1615878372E-01      0.5141670767E-01
          0                 3           1             1    1     1       0.2061827748E-04       1    1    1         0.1131115178E-02      0.3595710896E-02

    ------------------------------------------------
       NWT REQUIRED            3 OUTER ITERATIONS 
       AND A TOTAL OF          5 INNER ITERATIONS.
    ------------------------------------------------

 NO OUTPUT CONTROL FOR STRESS PERIOD   41   TIME STEP   25
 
 SOLVING FOR HEAD 
                                                   Max.-Head-Change                         Max.-Flux-Residual
  Residual-Control   Outer-Iter.   Inner-Iter.     Column Row Layer    Maximum-Head-Change  Column Row Layer    Maximum-Flux-Residual          L2-NORM 
          0                 1           2             1    1     1       0.3109463807E-02       1    1    1         0.1614192548E+00      0.5123025274E+00
          0                 2           2             1    1     1      -0.3024663072E-03       1    1    1        -0.1614194334E-01      0.5120208543E-01
          0                 3           1             1    1     1       0.2059683157E-04       1    1    1         0.1129936355E-02      0.3581606424E-02

    ------------------------------------------------
       NWT REQUIRED            3 OUTER ITERATIONS 
       AND A TOTAL OF          5 INNER ITERATIONS.
    ------------------------------------------------

 NO OUTPUT CONTROL FOR STRESS PERIOD   41   TIME STEP   26
 
 SOLVING FOR HEAD 
                                                   Max.-Head-Change                         Max.-Flux-Residual
  Residual-Control   Outer-Iter.   Inner-Iter.     Column Row Layer    Maximum-Head-Change  Column Row Layer    Maximum-Flux-Residual          L2-NORM 
          0                 1           2             1    1     1       0.2945244638E-02       1    1    1         0.1528882075E+00      0.5161634155E+00
          0                 2           2             1    1     1      -0.2864922241E-03       1    1    1        -0.1528883623E-01      0.5149054966E-01
          0                 3           1             1    1     1       0.1950905613E-04       1    1    1         0.1070218855E-02      0.3593051246E-02

    ------------------------------------------------
       NWT REQUIRED            3 OUTER ITERATIONS 
       AND A TOTAL OF          5 INNER ITERATIONS.
    ------------------------------------------------

 NO OUTPUT CONTROL FOR STRESS PERIOD   41   TIME STEP   27
 
 SOLVING FOR HEAD 
                                                   Max.-Head-Change                         Max.-Flux-Residual
  Residual-Control   Outer-Iter.   Inner-Iter.     Column Row Layer    Maximum-Head-Change  Column Row Layer    Maximum-Flux-Residual          L2-NORM 
          0                 1           2             2   13     1      -0.3918282537E-02       2   13    1        -0.2212768247E+00      0.6022181911E+00
          0                 2           2             2   13     1       0.3656497282E-03       2   13    1         0.2122652305E-01      0.5952842073E-01
          0                 3           1             4   13     1      -0.2345597202E-04       4   13    1        -0.1456528632E-02      0.4101552175E-02

    ------------------------------------------------
       NWT REQUIRED            3 OUTER ITERATIONS 
       AND A TOTAL OF          5 INNER ITERATIONS.
    ------------------------------------------------

 NO OUTPUT CONTROL FOR STRESS PERIOD   41   TIME STEP   28
 
 SOLVING FOR HEAD 
                                                   Max.-Head-Change                         Max.-Flux-Residual
  Residual-Control   Outer-Iter.   Inner-Iter.     Column Row Layer    Maximum-Head-Change  Column Row Layer    Maximum-Flux-Residual          L2-NORM 
          0                 1           2             2   13     1      -0.3613989475E-02       2   13    1        -0.2041005533E+00      0.5791384972E+00
          0                 2           2             2   13     1       0.3375902701E-03       2   13    1         0.1959860646E-01      0.5673010371E-01
          0                 3           1             2   13     1      -0.2176292457E-04       2   13    1        -0.1298624857E-02      0.3918909742E-02

    ------------------------------------------------
       NWT REQUIRED            3 OUTER ITERATIONS 
       AND A TOTAL OF          5 INNER ITERATIONS.
    ------------------------------------------------

 NO OUTPUT CONTROL FOR STRESS PERIOD   41   TIME STEP   29
 
 SOLVING FOR HEAD 
                                                   Max.-Head-Change                         Max.-Flux-Residual
  Residual-Control   Outer-Iter.   Inner-Iter.     Column Row Layer    Maximum-Head-Change  Column Row Layer    Maximum-Flux-Residual          L2-NORM 
          0                 1           2             2   13     1      -0.3333020239E-02       2   13    1        -0.1882383029E+00      0.5598667424E+00
          0                 2           2             2   13     1       0.3115377378E-03       2   13    1         0.1808661481E-01      0.5546972876E-01
          0                 3           1             2   13     1      -0.2004403192E-04       2   13    1        -0.1196073312E-02      0.3835970065E-02

    ------------------------------------------------
       NWT REQUIRED            3 OUTER ITERATIONS 
       AND A TOTAL OF          5 INNER ITERATIONS.
    ------------------------------------------------

 NO OUTPUT CONTROL FOR STRESS PERIOD   41   TIME STEP   30



 STREAM LISTING     PERIOD     41   STEP       30

 LAYER ROW COL. STREAM  RCH.  FLOW INTO     FLOW TO   FLOW OUT OF   OVRLND.     DIRECT     STREAM       STREAM     STREAM     STREAM   STREAMBED  STREAMBED
                SEG.NO.  NO.  STRM. RCH.    AQUIFER    STRM. RCH.    RUNOFF     PRECIP       ET          HEAD       DEPTH      WIDTH   CONDCTNC.   GRADIENT

   1    1    1     1     1    4.7249E+01  3.2762E-01   4.6921E+01  0.000E+00  0.000E+00  0.000E+00  1.09443E+03  1.381E+00  1.662E+01  7.477E-02  1.460E+00
   1    2    2     1     2    4.6921E+01  5.0759E-01   4.6413E+01  0.000E+00  0.000E+00  0.000E+00  1.08944E+03  1.379E+00  1.656E+01  1.159E-01  1.460E+00
   1    3    3     1     3    4.6413E+01  4.3309E-01   4.5980E+01  0.000E+00  0.000E+00  0.000E+00  1.08379E+03  1.376E+00  1.650E+01  9.898E-02  1.459E+00
   1    3    4     1     4    4.5980E+01  3.9899E-01   4.5581E+01  0.000E+00  0.000E+00  0.000E+00  1.07878E+03  1.373E+00  1.644E+01  9.124E-02  1.458E+00
   1    4    5     2     1    4.3581E+01  3.6514E-01   4.3216E+01  0.000E+00  0.000E+00  0.000E+00  1.07362E+03  1.681E+00  1.200E+01  7.800E-02  1.560E+00
   1    5    6     2     2    4.3216E+01  2.8042E-01   4.2936E+01  0.000E+00  0.000E+00  0.000E+00  1.06818E+03  1.674E+00  1.200E+01  6.000E-02  1.558E+00
   1    6    6     2     3    4.2936E+01  2.8003E-01   4.2656E+01  0.000E+00  0.000E+00  0.000E+00  1.06346E+03  1.667E+00  1.200E+01  6.000E-02  1.556E+00
   1    7    6     2     4    4.2656E+01  2.7964E-01   4.2376E+01  0.000E+00  0.000E+00  0.000E+00  1.05874E+03  1.661E+00  1.200E+01  6.000E-02  1.554E+00
   1    8    6     2     5    4.2376E+01  2.7924E-01   4.2097E+01  0.000E+00  0.000E+00  0.000E+00  1.05401E+03  1.654E+00  1.200E+01  6.000E-02  1.551E+00
   1    3    5     3     1    2.0000E+00  2.8252E-01   1.7175E+00  0.000E+00  0.000E+00  0.000E+00  1.07555E+03  1.909E+00  9.636E+00  7.227E-02  1.955E+00
   1    3    6     3     2    1.7175E+00  2.4905E-01   1.4684E+00  0.000E+00  0.000E+00  0.000E+00  1.07264E+03  1.727E+00  8.909E+00  6.682E-02  1.864E+00
   1    3    7     3     3    1.4684E+00  1.9718E-01   1.2712E+00  0.000E+00  0.000E+00  0.000E+00  1.06987E+03  1.555E+00  8.218E+00  5.547E-02  1.777E+00
   1    4    8     3     4    1.2712E+00  2.2567E-01   1.0456E+00  0.000E+00  0.000E+00  0.000E+00  1.06682E+03  1.364E+00  7.455E+00  6.709E-02  1.682E+00
   1    5    8     3     5    1.0456E+00  1.5790E-01   8.8768E-01  0.000E+00  0.000E+00  0.000E+00  1.06362E+03  1.164E+00  6.655E+00  4.991E-02  1.582E+00
   1    6    8     3     6    8.8768E-01  5.5980E-02   8.3170E-01  0.000E+00  0.000E+00  0.000E+00  1.06158E+03  1.036E+00  6.145E+00  1.844E-02  1.518E+00
   1    5   10     4     1    1.0000E+01  9.0919E-02   9.9091E+00  0.000E+00  0.000E+00  0.000E+00  1.07836E+03  6.368E-01  1.000E+01  2.500E-02  1.212E+00
   1    5    9     4     2    9.9091E+00  1.8158E-01   9.7275E+00  0.000E+00  0.000E+00  0.000E+00  1.07154E+03  6.315E-01  1.000E+01  5.000E-02  1.211E+00
   1    6    8     4     3    9.7275E+00  1.2689E-01   9.6006E+00  0.000E+00  0.000E+00  0.000E+00  1.06381E+03  6.256E-01  1.000E+01  3.500E-02  1.209E+00
   1    6    8     5     1    1.0432E+01  2.2686E-01   1.0205E+01  0.000E+00  0.000E+00  0.000E+00  1.05868E+03  6.790E-01  1.542E+01  6.166E-02  1.226E+00
   1    7    7     5     2    1.0205E+01  2.7894E-01   9.9265E+00  0.000E+00  0.000E+00  0.000E+00  1.05417E+03  6.732E-01  1.519E+01  7.594E-02  1.224E+00
   1    8    7     5     3    9.9265E+00  1.9221E-01   9.7343E+00  0.000E+00  0.000E+00  0.000E+00  1.04992E+03  6.676E-01  1.497E+01  5.241E-02  1.223E+00
   1    8    6     5     4    9.7343E+00  1.3577E-01   9.5985E+00  0.000E+00  0.000E+00  0.000E+00  1.04691E+03  6.637E-01  1.482E+01  3.706E-02  1.221E+00
   1    9    6     6     1    5.1695E+01  2.9310E-01   5.1402E+01  0.000E+00  0.000E+00  0.000E+00  1.04461E+03  1.885E+00  1.200E+01  6.000E-02  1.628E+00
   1   10    7     6     2    5.1402E+01  2.9271E-01   5.1110E+01  0.000E+00  0.000E+00  0.000E+00  1.04006E+03  1.879E+00  1.200E+01  6.000E-02  1.626E+00
   1   11    7     6     3    5.1110E+01  2.9233E-01   5.0817E+01  0.000E+00  0.000E+00  0.000E+00  1.03551E+03  1.872E+00  1.200E+01  6.000E-02  1.624E+00
   1   12    7     6     4    5.0817E+01  2.9194E-01   5.0525E+01  0.000E+00  0.000E+00  0.000E+00  1.03096E+03  1.866E+00  1.200E+01  6.000E-02  1.622E+00
   1   13    7     6     5    5.0525E+01  1.9199E-02   5.0506E+01  0.000E+00  0.000E+00  0.000E+00  1.02777E+03  1.862E+00  1.200E+01  2.400E-02  2.666E-01
   1   14    9     7     1    1.5000E+02  1.3513E+00   1.4865E+02  0.000E+00  0.000E+00  0.000E+00  1.03987E+03  2.288E+00  5.529E+01  5.593E-01  8.053E-01
   1   13    8     7     2    1.4865E+02  1.8777E+00   1.4677E+02  0.000E+00  0.000E+00  0.000E+00  1.03478E+03  2.279E+00  5.526E+01  6.148E-01  1.018E+00
   1   13    7     7     3    1.4677E+02  1.5178E+00   1.4525E+02  0.000E+00  0.000E+00  0.000E+00  1.02969E+03  2.270E+00  5.522E+01  5.584E-01  9.060E-01
   1   13    6     8     1    1.9576E+02  1.0616E+00   1.9470E+02  0.000E+00  0.000E+00  0.000E+00  1.02498E+03  3.109E+00  4.509E+01  4.595E-01  7.702E-01
   1   13    5     8     2    1.9470E+02  2.5937E-01   1.9444E+02  0.000E+00  0.000E+00  0.000E+00  1.01873E+03  3.105E+00  4.503E+01  4.589E-01  1.884E-01
   1   13    4     8     3    1.9444E+02 -2.3415E+00   1.9678E+02  0.000E+00  0.000E+00  0.000E+00  1.01249E+03  3.112E+00  4.512E+01  4.598E+00 -1.698E-01
   1   13    3     8     4    1.9678E+02 -3.6358E+00   2.0042E+02  0.000E+00  0.000E+00  0.000E+00  1.00625E+03  3.129E+00  4.538E+01  4.624E+00 -2.621E-01
   1   13    2     8     5    2.0042E+02 -2.6879E+00   2.0310E+02  0.000E+00  0.000E+00  0.000E+00  1.00002E+03  3.148E+00  4.565E+01  4.652E+00 -1.926E-01
   1   13    1     8     6    2.0310E+02 -2.0725E+00   2.0518E+02  0.000E+00  0.000E+00  0.000E+00  9.95037E+02  3.162E+00  4.585E+01  2.803E+00 -2.464E-01
   1    8    6     9     1    0.0000E+00  0.0000E+00   0.0000E+00  0.000E+00  0.000E+00  0.000E+00  1.07875E+03  0.000E+00  4.000E+00  0.000E+00  1.000E+00
   1    8    5     9     2    0.0000E+00  0.0000E+00   0.0000E+00  0.000E+00  0.000E+00  0.000E+00  1.07825E+03  0.000E+00  4.000E+00  0.000E+00  1.000E+00





UNSATURATED ZONE PACKAGE VOLUMETRIC BUDGET FOR  TIME STEP    30 STRESS PERIOD   41
  ------------------------------------------------------------------------------



     CUMULATIVE VOLUMES      L**3       RATES FOR THIS TIME STEP      L**3/T
     ------------------                 ------------------------

           IN:                                      IN:
           ---                                      ---
        INFILTRATION =  1906059535.9084          INFILTRATION =           4.4075

          OUT:                                     OUT:
          ----                                     ----
              UZF ET =  1524547402.7002                UZF ET =           4.4075
        UZF RECHARGE =    79902034.3175          UZF RECHARGE =       0.0000E+00

            IN - OUT =   301610098.8908              IN - OUT =       0.0000E+00

          STORAGE:                                 STORAGE:
          --------                                 --------
      STORAGE CHANGE =   301611621.0286        STORAGE CHANGE =      -1.2947E-14

 PERCENT DISCREPANCY IS DIFFERENCE BETWEEN IN-OUT MINUS CHANGE IN STORAGE
 DIVIDED BY THE AVERAGE OF IN AND OUT TIMES 100

 PERCENT DISCREPANCY =          -0.00     PERCENT DISCREPANCY =           0.00






1
  VOLUMETRIC BUDGET FOR AGRICULTURAL FIELDS AT  END OF TIME STEP   30, STRESS PERIOD  41
  ------------------------------------------------------------------------------

     CUMULATIVE VOLUMES      L**3       RATES FOR THIS TIME STEP      L**3/T
     ------------------                 ------------------------

           IN:                                      IN:
           ---                                      ---
               AG WELLS  =   514772736.0000                 AG WELLS  =           0.0000
      DIVERSION SEGMENTS =   927926528.0000        DIVERSION SEGMENTS =           0.0000
           GW IRRIGATION =           0.0000             GW IRRIGATION =           0.0000
           SW IRRIGATION =           0.0000             SW IRRIGATION =           0.0000
        SYSTEM LOSSES GW =           0.0000          SYSTEM LOSSES GW =           0.0000
        SYSTEM LOSSES SW =           0.0000          SYSTEM LOSSES SW =           0.0000

                TOTAL IN =  1442699264.0000                  TOTAL IN =           0.0000

          OUT:                                     OUT:
          ----                                     ----
               AG WELLS  =           0.0000                 AG WELLS  =           0.0000
      DIVERSION SEGMENTS =           0.0000        DIVERSION SEGMENTS =           0.0000
           GW IRRIGATION =   514772736.0000             GW IRRIGATION =           0.0000
           SW IRRIGATION =   927944192.0000             SW IRRIGATION =           0.0000
        SYSTEM LOSSES GW =           0.0000          SYSTEM LOSSES GW =           0.0000
        SYSTEM LOSSES SW =           0.0000          SYSTEM LOSSES SW =           0.0000

               TOTAL OUT =  1442716928.0000                 TOTAL OUT =           0.0000

                IN - OUT =      -17664.0000                  IN - OUT =           0.0000

     PERCENT DISCREPANCY =          -0.00         PERCENT DISCREPANCY =           0.00



1
  VOLUMETRIC BUDGET FOR ENTIRE MODEL AT END OF TIME STEP   30, STRESS PERIOD  41
  ------------------------------------------------------------------------------

     CUMULATIVE VOLUMES      L**3       RATES FOR THIS TIME STEP      L**3/T
     ------------------                 ------------------------

           IN:                                      IN:
           ---                                      ---
             STORAGE     =   872198912.0000               STORAGE     =           1.1936
       CONSTANT HEAD     =           0.0000         CONSTANT HEAD     =           0.0000
     HEAD DEP BOUNDS     =    30115332.0000       HEAD DEP BOUNDS     =           0.2868
      STREAM LEAKAGE     =  1269464192.0000        STREAM LEAKAGE     =          12.8103
        UZF RECHARGE     =    79902024.0000          UZF RECHARGE     =           0.0000
               GW ET     =           0.0000                 GW ET     =           0.0000
     SURFACE LEAKAGE     =           0.0000       SURFACE LEAKAGE     =           0.0000
           AG WELLS      =           0.0000             AG WELLS      =           0.0000

                TOTAL IN =  2251680512.0000                  TOTAL IN =          14.2906

          OUT:                                     OUT:
          ----                                     ----
             STORAGE     =   584860608.0000               STORAGE     =           3.2116
       CONSTANT HEAD     =           0.0000         CONSTANT HEAD     =           0.0000
     HEAD DEP BOUNDS     =    30617064.0000       HEAD DEP BOUNDS     =           0.2955
      STREAM LEAKAGE     =  1118621824.0000        STREAM LEAKAGE     =          10.7377
        UZF RECHARGE     =           0.0000          UZF RECHARGE     =           0.0000
               GW ET     =     2809610.7500                 GW ET     =       4.6422E-02
     SURFACE LEAKAGE     =           0.0000       SURFACE LEAKAGE     =           0.0000
           AG WELLS      =   514772736.0000             AG WELLS      =           0.0000

               TOTAL OUT =  2251681792.0000                 TOTAL OUT =          14.2912

                IN - OUT =       -1280.0000                  IN - OUT =      -5.7316E-04

     PERCENT DISCREPANCY =          -0.00         PERCENT DISCREPANCY =          -0.00






         TIME SUMMARY AT END OF TIME STEP   30 IN STRESS PERIOD   41
                    SECONDS     MINUTES      HOURS       DAYS        YEARS
                    -----------------------------------------------------------
   TIME STEP LENGTH  87667.      1461.1      24.352      1.0147     2.77799E-03
 STRESS PERIOD TIME 2.63000E+06  43833.      730.56      30.440     8.33397E-02
         TOTAL TIME 1.05286E+08 1.75476E+06  29246.      1218.6      3.3363    
1
1
                            STRESS PERIOD NO.   42, LENGTH =   2630000.    
                            -----------------------------------------------

                              NUMBER OF TIME STEPS =    30

                               MULTIPLIER FOR DELT =     1.000

                            INITIAL TIME STEP SIZE =   87666.66    

 REUSING NON-PARAMETER GHB CELLS FROM LAST STRESS PERIOD

      2 GHB CELLS

 REUSING STREAM SEGMENT DATA FROM LAST STRESS PERIOD



            AREAL INFILTRATION RATE
 READING ON UNIT   19 WITH FORMAT: (10F4.0)            

            1           2           3           4           5           6           7           8           9          10
 ........................................................................................................................
   1   1.2000E-09   0.000       0.000       0.000       0.000       0.000       0.000       0.000       0.000       0.000    
   2   2.1000E-09  2.0000E-09  8.0000E-10  8.5000E-09   0.000       0.000       0.000       0.000       0.000       0.000    
   3   5.0000E-10  1.1000E-09  8.8000E-09  5.5000E-09   0.000       0.000       0.000       0.000       0.000       0.000    
   4   8.5000E-09  1.1000E-09  1.1000E-09  1.1000E-09  2.0000E-09   0.000       0.000       0.000       0.000       0.000    
   5   8.5000E-09  1.1000E-09  1.1000E-09  1.1000E-09  1.1000E-09   0.000       0.000       0.000       0.000       0.000    
   6   8.5000E-09  5.2000E-09  2.1000E-09  1.1000E-09  1.5000E-09   0.000       0.000       0.000       0.000       0.000    
   7   8.5000E-09  5.2000E-09  2.1000E-09  1.2000E-09  2.0000E-09   0.000       0.000       0.000       0.000       0.000    
   8   5.0000E-10  5.2000E-09  2.1000E-09  1.2000E-09  5.0000E-09   0.000       0.000       0.000       0.000       0.000    
   9   5.0000E-10  5.2000E-09  2.1000E-09  1.2000E-09  5.0000E-09   0.000       0.000       0.000       0.000       0.000    
  10   5.0000E-10  5.2000E-09  2.1000E-09  1.2000E-09  5.8000E-09   0.000       0.000       0.000       0.000       0.000    
  11   1.0000E-10  1.1000E-09  1.1000E-09  1.2000E-09  5.0000E-09   0.000       0.000       0.000       0.000       0.000    
  12   1.1000E-09  1.1000E-09  1.1000E-09  1.1000E-09  2.0000E-09   0.000       0.000       0.000       0.000       0.000    
  13   1.1000E-09  2.2000E-09  2.2000E-09  2.1000E-09  1.0000E-09   0.000       0.000       0.000       0.000       0.000    
  14   2.0000E-10  5.5000E-09  5.5000E-09  5.2000E-09  1.0000E-09   0.000       0.000       0.000       0.000       0.000    
  15    0.000      8.8000E-09  8.8000E-09   0.000       0.000       0.000       0.000       0.000       0.000       0.000    

                  ET RATE =  5.000000E-08

 USING ET EXTINCTION DEPTH FROM PREVIOUS STRESS PERIOD. CURRENT PERIOD IS:      42

 USING EXTINCTION WATER CONTENT FROM PREVIOUS STRESS PERIOD. CURRENT PERIOD IS:      42

 USING AIR ENTRY PRESSURE FROM PREVIOUS STRESS PERIOD. CURRENT PERIOD IS:      42

 USING ROOT PRESSURE HEAD FROM PREVIOUS STRESS PERIOD. CURRENT PERIOD IS:      42

 USING ROOT ACTIVITY FROM PREVIOUS STRESS PERIOD. CURRENT PERIOD IS:      42

 PROCESSING AG STRESS PERIOD DATA

 READING AG STRESS PERIOD DATA

 READING IRRIGATION SEGMENT

 READING IRRIGATION WELL

 READING SUPPLEMENTAL WELL

 END PROCESSING AG STRESS PERIOD DATA OPTIONS
 
 SOLVING FOR HEAD 
                                                   Max.-Head-Change                         Max.-Flux-Residual
  Residual-Control   Outer-Iter.   Inner-Iter.     Column Row Layer    Maximum-Head-Change  Column Row Layer    Maximum-Flux-Residual          L2-NORM 
          0                 1           2             3   13     1      -0.3329666455E-02       3   13    1        -0.1970640475E+00      0.5595814407E+00
          0                 2           2             4    7     1      -0.2246820856E-01       5    6    1        -0.1207467284E+01      0.2967000437E+01
          0                 3           2             4    7     1       0.2326594114E-01       5    6    1         0.1284522640E+01      0.3156218506E+01
          0                 4           2             4    7     1      -0.9257825360E-03       5    6    1        -0.5253720234E-01      0.1309511699E+00
          0                 5           1             4   13     1      -0.1626931511E-04       4   13    1        -0.9875532742E-03      0.2307911944E-02

    ------------------------------------------------
       NWT REQUIRED            5 OUTER ITERATIONS 
       AND A TOTAL OF          9 INNER ITERATIONS.
    ------------------------------------------------

 NO OUTPUT CONTROL FOR STRESS PERIOD   42   TIME STEP    1
 
 SOLVING FOR HEAD 
                                                   Max.-Head-Change                         Max.-Flux-Residual
  Residual-Control   Outer-Iter.   Inner-Iter.     Column Row Layer    Maximum-Head-Change  Column Row Layer    Maximum-Flux-Residual          L2-NORM 
          0                 1           2             1    1     1       0.2495513617E-02       3   13    1        -0.1413163315E+00      0.5171614500E+00
          0                 2           2             1    1     1      -0.2427455720E-03       3   13    1         0.1384992901E-01      0.5139758683E-01
          0                 3           1             1    1     1       0.1653007214E-04       3   13    1        -0.9426601009E-03      0.3568488992E-02

    ------------------------------------------------
       NWT REQUIRED            3 OUTER ITERATIONS 
       AND A TOTAL OF          5 INNER ITERATIONS.
    ------------------------------------------------

 NO OUTPUT CONTROL FOR STRESS PERIOD   42   TIME STEP    2
 
 SOLVING FOR HEAD 
                                                   Max.-Head-Change                         Max.-Flux-Residual
  Residual-Control   Outer-Iter.   Inner-Iter.     Column Row Layer    Maximum-Head-Change  Column Row Layer    Maximum-Flux-Residual          L2-NORM 
          0                 1           2             1    1     1       0.2493369394E-02       1    1    1         0.1294136742E+00      0.5062753653E+00
          0                 2           2             4    7     1      -0.1917048414E-01       5    6    1        -0.1030282276E+01      0.2532107097E+01
          0                 3           2             4    7     1       0.1983243150E-01       5    6    1         0.1094959938E+01      0.2690490872E+01
          0                 4           2             4    7     1      -0.7891575219E-03       5    6    1        -0.4478403529E-01      0.1116374465E+00
          0                 5           1             4   13     1      -0.1391238706E-04       4   13    1        -0.8447534256E-03      0.1970295457E-02

    ------------------------------------------------
       NWT REQUIRED            5 OUTER ITERATIONS 
       AND A TOTAL OF          9 INNER ITERATIONS.
    ------------------------------------------------

 NO OUTPUT CONTROL FOR STRESS PERIOD   42   TIME STEP    3
 
 SOLVING FOR HEAD 
                                                   Max.-Head-Change                         Max.-Flux-Residual
  Residual-Control   Outer-Iter.   Inner-Iter.     Column Row Layer    Maximum-Head-Change  Column Row Layer    Maximum-Flux-Residual          L2-NORM 
          0                 1           2             1    1     1       0.2491208114E-02       1    1    1         0.1293013224E+00      0.4821034105E+00
          0                 2           2             1    1     1      -0.2423267631E-03       1    1    1        -0.1293014194E-01      0.5038178895E-01
          0                 3           1             4    6     1       0.3402422954E-04       5    6    1         0.1899071831E-02      0.5665836645E-02

    ------------------------------------------------
       NWT REQUIRED            3 OUTER ITERATIONS 
       AND A TOTAL OF          5 INNER ITERATIONS.
    ------------------------------------------------

 NO OUTPUT CONTROL FOR STRESS PERIOD   42   TIME STEP    4
 
 SOLVING FOR HEAD 
                                                   Max.-Head-Change                         Max.-Flux-Residual
  Residual-Control   Outer-Iter.   Inner-Iter.     Column Row Layer    Maximum-Head-Change  Column Row Layer    Maximum-Flux-Residual          L2-NORM 
          0                 1           2             1    1     1       0.2489075131E-02       1    1    1         0.1291904401E+00      0.4767911149E+00
          0                 2           2             4    7     1      -0.1936067008E-01       5    6    1        -0.1040427931E+01      0.2557811607E+01
          0                 3           2             4    7     1       0.2002952901E-01       5    6    1         0.1105836539E+01      0.2717203367E+01
          0                 4           2             4    7     1      -0.7970003468E-03       4    6    1        -0.4522899809E-01      0.1127419117E+00
          0                 5           1             4   13     1      -0.1402974458E-04       4   13    1        -0.8518670147E-03      0.1987918810E-02

    ------------------------------------------------
       NWT REQUIRED            5 OUTER ITERATIONS 
       AND A TOTAL OF          9 INNER ITERATIONS.
    ------------------------------------------------

 NO OUTPUT CONTROL FOR STRESS PERIOD   42   TIME STEP    5
 
 SOLVING FOR HEAD 
                                                   Max.-Head-Change                         Max.-Flux-Residual
  Residual-Control   Outer-Iter.   Inner-Iter.     Column Row Layer    Maximum-Head-Change  Column Row Layer    Maximum-Flux-Residual          L2-NORM 
          0                 1           2             1    1     1       0.2486925039E-02       1    1    1         0.1290786707E+00      0.4629226770E+00
          0                 2           2             4    7     1      -0.2075311224E-02       5    6    1        -0.1120558785E+00      0.2771844890E+00
          0                 3           2             4    7     1       0.1737090760E-02       5    6    1         0.9594337924E-01      0.2360652310E+00
          0                 4           1             4   13     1      -0.1653559316E-04       4   13    1        -0.9511424723E-03      0.2595528158E-02

    ------------------------------------------------
       NWT REQUIRED            4 OUTER ITERATIONS 
       AND A TOTAL OF          7 INNER ITERATIONS.
    ------------------------------------------------

 NO OUTPUT CONTROL FOR STRESS PERIOD   42   TIME STEP    6
 
 SOLVING FOR HEAD 
                                                   Max.-Head-Change                         Max.-Flux-Residual
  Residual-Control   Outer-Iter.   Inner-Iter.     Column Row Layer    Maximum-Head-Change  Column Row Layer    Maximum-Flux-Residual          L2-NORM 
          0                 1           2             1    1     1       0.2484803951E-02       1    1    1         0.1289684076E+00      0.4597935958E+00
          0                 2           2             4    7     1      -0.1924608040E-01       5    6    1        -0.1034236123E+01      0.2543241283E+01
          0                 3           2             4    7     1       0.1990938501E-01       5    6    1         0.1099201012E+01      0.2700899223E+01
          0                 4           2             4    7     1      -0.7922196241E-03       4    6    1        -0.4495771909E-01      0.1120478564E+00
          0                 5           1             4   13     1      -0.1392720943E-04       4   13    1        -0.8456420192E-03      0.1967952084E-02

    ------------------------------------------------
       NWT REQUIRED            5 OUTER ITERATIONS 
       AND A TOTAL OF          9 INNER ITERATIONS.
    ------------------------------------------------

 NO OUTPUT CONTROL FOR STRESS PERIOD   42   TIME STEP    7
 
 SOLVING FOR HEAD 
                                                   Max.-Head-Change                         Max.-Flux-Residual
  Residual-Control   Outer-Iter.   Inner-Iter.     Column Row Layer    Maximum-Head-Change  Column Row Layer    Maximum-Flux-Residual          L2-NORM 
          0                 1           2             1    1     1       0.2482664977E-02       1    1    1         0.1288572159E+00      0.4540698027E+00
          0                 2           2             4    7     1      -0.3637214458E-02       4    6    1        -0.1959190731E+00      0.4825371899E+00
          0                 3           2             4    7     1       0.3484108384E-02       4    6    1         0.1923914443E+00      0.4729541513E+00
          0                 4           2             4    7     1      -0.1284273438E-03       4    6    1        -0.7289514449E-02      0.1788527871E-01
          0                 5           1             2   13     1      -0.2038493929E-04       4   13    1        -0.1258871837E-02      0.2764879355E-02

    ------------------------------------------------
       NWT REQUIRED            5 OUTER ITERATIONS 
       AND A TOTAL OF          9 INNER ITERATIONS.
    ------------------------------------------------

 NO OUTPUT CONTROL FOR STRESS PERIOD   42   TIME STEP    8
 
 SOLVING FOR HEAD 
                                                   Max.-Head-Change                         Max.-Flux-Residual
  Residual-Control   Outer-Iter.   Inner-Iter.     Column Row Layer    Maximum-Head-Change  Column Row Layer    Maximum-Flux-Residual          L2-NORM 
          0                 1           2             1    1     1       0.2480554939E-02       1    1    1         0.1287475289E+00      0.4524949271E+00
          0                 2           2             4    7     1      -0.1812628189E-01       4    6    1        -0.9740850634E+00      0.2395792982E+01
          0                 3           2             4    7     1       0.1874297342E-01       4    6    1         0.1034804746E+01      0.2542987759E+01
          0                 4           2             4    7     1      -0.7458062689E-03       4    6    1        -0.4232390282E-01      0.1049540053E+00
          0                 5           1             2   13     1      -0.1168342978E-04       2   13    1        -0.6991820510E-03      0.1600058578E-02

    ------------------------------------------------
       NWT REQUIRED            5 OUTER ITERATIONS 
       AND A TOTAL OF          9 INNER ITERATIONS.
    ------------------------------------------------

 NO OUTPUT CONTROL FOR STRESS PERIOD   42   TIME STEP    9
 
 SOLVING FOR HEAD 
                                                   Max.-Head-Change                         Max.-Flux-Residual
  Residual-Control   Outer-Iter.   Inner-Iter.     Column Row Layer    Maximum-Head-Change  Column Row Layer    Maximum-Flux-Residual          L2-NORM 
          0                 1           2             1    1     1       0.2478426978E-02       1    1    1         0.1286369105E+00      0.4524246025E+00
          0                 2           2             4    7     1      -0.4875537879E-02       4    6    1        -0.2624235515E+00      0.6461031178E+00
          0                 3           2             4    7     1       0.4802881281E-02       4    6    1         0.2651982981E+00      0.6518255202E+00
          0                 4           2             4    7     1      -0.1810889984E-03       4    6    1        -0.1027789924E-01      0.2529775252E-01
          0                 5           1             2   13     1      -0.1786501223E-04       2   13    1        -0.1066052176E-02      0.1955239473E-02

    ------------------------------------------------
       NWT REQUIRED            5 OUTER ITERATIONS 
       AND A TOTAL OF          9 INNER ITERATIONS.
    ------------------------------------------------

 NO OUTPUT CONTROL FOR STRESS PERIOD   42   TIME STEP   10
 
 SOLVING FOR HEAD 
                                                   Max.-Head-Change                         Max.-Flux-Residual
  Residual-Control   Outer-Iter.   Inner-Iter.     Column Row Layer    Maximum-Head-Change  Column Row Layer    Maximum-Flux-Residual          L2-NORM 
          0                 1           2             1    1     1       0.2476327913E-02       1    1    1         0.1285277946E+00      0.4517305502E+00
          0                 2           2             4    7     1      -0.1730067357E-01       4    6    1        -0.9297390148E+00      0.2287121177E+01
          0                 3           2             4    7     1       0.1788284441E-01       4    6    1         0.9873183341E+00      0.2426443002E+01
          0                 4           2             4    7     1      -0.7115804082E-03       4    6    1        -0.4038167633E-01      0.9989282648E-01
          0                 5           1             4    7     1       0.8774086023E-05       4    6    1         0.5117598321E-03      0.1399323268E-02

    ------------------------------------------------
       NWT REQUIRED            5 OUTER ITERATIONS 
       AND A TOTAL OF          9 INNER ITERATIONS.
    ------------------------------------------------

 NO OUTPUT CONTROL FOR STRESS PERIOD   42   TIME STEP   11
 
 SOLVING FOR HEAD 
                                                   Max.-Head-Change                         Max.-Flux-Residual
  Residual-Control   Outer-Iter.   Inner-Iter.     Column Row Layer    Maximum-Head-Change  Column Row Layer    Maximum-Flux-Residual          L2-NORM 
          0                 1           2             1    1     1       0.2474210881E-02       1    1    1         0.1284177451E+00      0.4549512133E+00
          0                 2           2             4    7     1      -0.7419875854E-02       4    6    1        -0.3990641168E+00      0.9822148587E+00
          0                 3           2             4    7     1       0.7597604527E-02       4    6    1         0.4194891899E+00      0.1030923354E+01
          0                 4           2             4    7     1      -0.3023167465E-03       4    6    1        -0.1715718603E-01      0.4244335573E-01
          0                 5           1             4    7     1       0.3727694676E-05       4    6    1         0.2174343308E-03      0.5951619032E-03

    ------------------------------------------------
       NWT REQUIRED            5 OUTER ITERATIONS 
       AND A TOTAL OF          9 INNER ITERATIONS.
    ------------------------------------------------

 NO OUTPUT CONTROL FOR STRESS PERIOD   42   TIME STEP   12
 
 SOLVING FOR HEAD 
                                                   Max.-Head-Change                         Max.-Flux-Residual
  Residual-Control   Outer-Iter.   Inner-Iter.     Column Row Layer    Maximum-Head-Change  Column Row Layer    Maximum-Flux-Residual          L2-NORM 
          0                 1           2             1    1     1       0.2472122723E-02       1    1    1         0.1283091960E+00      0.4552672727E+00
          0                 2           2             4    7     1      -0.1608752156E-01       4    6    1        -0.8645663616E+00      0.2127190167E+01
          0                 3           2             4    7     1       0.1661946527E-01       4    6    1         0.9175683536E+00      0.2255026242E+01
          0                 4           2             4    7     1      -0.6613086475E-03       4    6    1        -0.3752885724E-01      0.9283630796E-01
          0                 5           1             4    7     1       0.8154214740E-05       4    6    1         0.4756058966E-03      0.1300506314E-02

    ------------------------------------------------
       NWT REQUIRED            5 OUTER ITERATIONS 
       AND A TOTAL OF          9 INNER ITERATIONS.
    ------------------------------------------------

 NO OUTPUT CONTROL FOR STRESS PERIOD   42   TIME STEP   13
 
 SOLVING FOR HEAD 
                                                   Max.-Head-Change                         Max.-Flux-Residual
  Residual-Control   Outer-Iter.   Inner-Iter.     Column Row Layer    Maximum-Head-Change  Column Row Layer    Maximum-Flux-Residual          L2-NORM 
          0                 1           2             1    1     1       0.2470016534E-02       1    1    1         0.1281997117E+00      0.4600640307E+00
          0                 2           2             4    7     1      -0.4565710585E-02       4    6    1        -0.2457600021E+00      0.6058882611E+00
          0                 3           2             4    7     1       0.4485356912E-02       4    6    1         0.2476667267E+00      0.6087342769E+00
          0                 4           2             4    7     1      -0.1697252996E-03       4    6    1        -0.9632976260E-02      0.2366307028E-01
          0                 5           1             4   13     1      -0.1641735836E-04       4   13    1        -0.1025441667E-02      0.1969136929E-02

    ------------------------------------------------
       NWT REQUIRED            5 OUTER ITERATIONS 
       AND A TOTAL OF          9 INNER ITERATIONS.
    ------------------------------------------------

 NO OUTPUT CONTROL FOR STRESS PERIOD   42   TIME STEP   14
 
 SOLVING FOR HEAD 
                                                   Max.-Head-Change                         Max.-Flux-Residual
  Residual-Control   Outer-Iter.   Inner-Iter.     Column Row Layer    Maximum-Head-Change  Column Row Layer    Maximum-Flux-Residual          L2-NORM 
          0                 1           2             1    1     1       0.2467915767E-02       1    1    1         0.1280905088E+00      0.4587408439E+00
          0                 2           2             4    7     1      -0.1610228243E-01       4    6    1        -0.8653539427E+00      0.2129369259E+01
          0                 3           2             4    7     1       0.1663423530E-01       4    6    1         0.9183834431E+00      0.2257025353E+01
          0                 4           2             4    7     1      -0.6618963691E-03       4    6    1        -0.3756219492E-01      0.9291829788E-01
          0                 5           1             4    7     1       0.8161461876E-05       4    6    1         0.4760283682E-03      0.1301577018E-02

    ------------------------------------------------
       NWT REQUIRED            5 OUTER ITERATIONS 
       AND A TOTAL OF          9 INNER ITERATIONS.
    ------------------------------------------------

 NO OUTPUT CONTROL FOR STRESS PERIOD   42   TIME STEP   15
 
 SOLVING FOR HEAD 
                                                   Max.-Head-Change                         Max.-Flux-Residual
  Residual-Control   Outer-Iter.   Inner-Iter.     Column Row Layer    Maximum-Head-Change  Column Row Layer    Maximum-Flux-Residual          L2-NORM 
          0                 1           2             1    1     1       0.2465843825E-02       1    1    1         0.1279828032E+00      0.4644674044E+00
          0                 2           2             4    7     1      -0.1236122924E-01       4    6    1        -0.6644243450E+00      0.1635347358E+01
          0                 3           2             4    7     1       0.1273991482E-01       4    6    1         0.7033847711E+00      0.1728636163E+01
          0                 4           2             4    7     1      -0.5069358175E-03       4    6    1        -0.2876862964E-01      0.7116598075E-01
          0                 5           1             4    7     1       0.6250733865E-05       4    6    1         0.3645869829E-03      0.9971071592E-03

    ------------------------------------------------
       NWT REQUIRED            5 OUTER ITERATIONS 
       AND A TOTAL OF          9 INNER ITERATIONS.
    ------------------------------------------------

 NO OUTPUT CONTROL FOR STRESS PERIOD   42   TIME STEP   16
 
 SOLVING FOR HEAD 
                                                   Max.-Head-Change                         Max.-Flux-Residual
  Residual-Control   Outer-Iter.   Inner-Iter.     Column Row Layer    Maximum-Head-Change  Column Row Layer    Maximum-Flux-Residual          L2-NORM 
          0                 1           2             1    1     1       0.2463753804E-02       1    1    1         0.1278741596E+00      0.4678862468E+00
          0                 2           2             4    7     1      -0.1184310577E-01       4    6    1        -0.6365893938E+00      0.1567019429E+01
          0                 3           2             4    7     1       0.1220035831E-01       4    6    1         0.6735963173E+00      0.1655421916E+01
          0                 4           2             4    7     1      -0.4854661362E-03       4    6    1        -0.2755026756E-01      0.6815134532E-01
          0                 5           1             4    7     1       0.5986003826E-05       4    6    1         0.3491465905E-03      0.9541766173E-03

    ------------------------------------------------
       NWT REQUIRED            5 OUTER ITERATIONS 
       AND A TOTAL OF          9 INNER ITERATIONS.
    ------------------------------------------------

 NO OUTPUT CONTROL FOR STRESS PERIOD   42   TIME STEP   17
 
 SOLVING FOR HEAD 
                                                   Max.-Head-Change                         Max.-Flux-Residual
  Residual-Control   Outer-Iter.   Inner-Iter.     Column Row Layer    Maximum-Head-Change  Column Row Layer    Maximum-Flux-Residual          L2-NORM 
          0                 1           2             1    1     1       0.2461692563E-02       1    1    1         0.1277670115E+00      0.4708899738E+00
          0                 2           2             4    7     1      -0.1164588278E-01       4    6    1        -0.6259891740E+00      0.1541061255E+01
          0                 3           2             4    7     1       0.1199484136E-01       4    6    1         0.6622495668E+00      0.1627531619E+01
          0                 4           2             4    7     1      -0.4772883420E-03       4    6    1        -0.2708618013E-01      0.6697880631E-01
          0                 5           1             4    7     1       0.5885168071E-05       4    6    1         0.3432651597E-03      0.9353174920E-03

    ------------------------------------------------
       NWT REQUIRED            5 OUTER ITERATIONS 
       AND A TOTAL OF          9 INNER ITERATIONS.
    ------------------------------------------------

 NO OUTPUT CONTROL FOR STRESS PERIOD   42   TIME STEP   18
 
 SOLVING FOR HEAD 
                                                   Max.-Head-Change                         Max.-Flux-Residual
  Residual-Control   Outer-Iter.   Inner-Iter.     Column Row Layer    Maximum-Head-Change  Column Row Layer    Maximum-Flux-Residual          L2-NORM 
          0                 1           2             1    1     1       0.2459613181E-02       1    1    1         0.1276589224E+00      0.4736118857E+00
          0                 2           2             4    7     1      -0.1153152068E-01       4    6    1        -0.6198393599E+00      0.1526270268E+01
          0                 3           2             4    7     1       0.1187558763E-01       4    6    1         0.6556652601E+00      0.1611334578E+01
          0                 4           2             4    7     1      -0.4725430773E-03       4    6    1        -0.2681687897E-01      0.6623762562E-01
          0                 5           1             4    7     1       0.5826657346E-05       4    6    1         0.3398522977E-03      0.9192376815E-03

    ------------------------------------------------
       NWT REQUIRED            5 OUTER ITERATIONS 
       AND A TOTAL OF          9 INNER ITERATIONS.
    ------------------------------------------------

 NO OUTPUT CONTROL FOR STRESS PERIOD   42   TIME STEP   19
 
 SOLVING FOR HEAD 
                                                   Max.-Head-Change                         Max.-Flux-Residual
  Residual-Control   Outer-Iter.   Inner-Iter.     Column Row Layer    Maximum-Head-Change  Column Row Layer    Maximum-Flux-Residual          L2-NORM 
          0                 1           2             1    1     1       0.2457539119E-02       1    1    1         0.1275511094E+00      0.4758664972E+00
          0                 2           2             4    7     1      -0.1147824089E-01       4    6    1        -0.6169702556E+00      0.1519218374E+01
          0                 3           2             4    7     1       0.1181992731E-01       4    6    1         0.6525918377E+00      0.1603835236E+01
          0                 4           2             4    7     1      -0.4703282792E-03       4    6    1        -0.2669117457E-01      0.6597663304E-01
          0                 5           1             4    7     1       0.5799347905E-05       4    6    1         0.3382592522E-03      0.8973517264E-03

    ------------------------------------------------
       NWT REQUIRED            5 OUTER ITERATIONS 
       AND A TOTAL OF          9 INNER ITERATIONS.
    ------------------------------------------------

 NO OUTPUT CONTROL FOR STRESS PERIOD   42   TIME STEP   20
 
 SOLVING FOR HEAD 
                                                   Max.-Head-Change                         Max.-Flux-Residual
  Residual-Control   Outer-Iter.   Inner-Iter.     Column Row Layer    Maximum-Head-Change  Column Row Layer    Maximum-Flux-Residual          L2-NORM 
          0                 1           2             1    1     1       0.2455493780E-02       1    1    1         0.1274447889E+00      0.4780067830E+00
          0                 2           2             4    7     1      -0.1145089666E-01       4    6    1        -0.6154928522E+00      0.1515591135E+01
          0                 3           2             4    7     1       0.1179125016E-01       4    6    1         0.6510080194E+00      0.1599994577E+01
          0                 4           2             4    7     1      -0.4691871775E-03       4    6    1        -0.2662639569E-01      0.6582229234E-01
          0                 5           1             4    7     1       0.5785277497E-05       4    6    1         0.3374382923E-03      0.8964012966E-03

    ------------------------------------------------
       NWT REQUIRED            5 OUTER ITERATIONS 
       AND A TOTAL OF          9 INNER ITERATIONS.
    ------------------------------------------------

 NO OUTPUT CONTROL FOR STRESS PERIOD   42   TIME STEP   21
 
 SOLVING FOR HEAD 
                                                   Max.-Head-Change                         Max.-Flux-Residual
  Residual-Control   Outer-Iter.   Inner-Iter.     Column Row Layer    Maximum-Head-Change  Column Row Layer    Maximum-Flux-Residual          L2-NORM 
          0                 1           2             1    1     1       0.2453430236E-02       4   13    1         0.1279657932E+00      0.4800358222E+00
          0                 2           2             4    7     1      -0.1143645538E-01       4    6    1        -0.6147100997E+00      0.1513672750E+01
          0                 3           2             4    7     1       0.1177604236E-01       4    6    1         0.6501679359E+00      0.1597981525E+01
          0                 4           2             4    7     1      -0.4685820385E-03       4    6    1        -0.2659203586E-01      0.6573860561E-01
          0                 5           1             4    7     1       0.5777815965E-05       4    6    1         0.3370028512E-03      0.8930380723E-03

    ------------------------------------------------
       NWT REQUIRED            5 OUTER ITERATIONS 
       AND A TOTAL OF          9 INNER ITERATIONS.
    ------------------------------------------------

 NO OUTPUT CONTROL FOR STRESS PERIOD   42   TIME STEP   22
 
 SOLVING FOR HEAD 
                                                   Max.-Head-Change                         Max.-Flux-Residual
  Residual-Control   Outer-Iter.   Inner-Iter.     Column Row Layer    Maximum-Head-Change  Column Row Layer    Maximum-Flux-Residual          L2-NORM 
          0                 1           2             1    1     1       0.2451371952E-02       4   13    1         0.1314283135E+00      0.4819524174E+00
          0                 2           2             4    7     1      -0.1142957210E-01       4    6    1        -0.6143319961E+00      0.1512784764E+01
          0                 3           2             4    7     1       0.1176871341E-01       4    6    1         0.6497627409E+00      0.1596865925E+01
          0                 4           2             4    7     1      -0.4682904104E-03       4    6    1        -0.2657546321E-01      0.6568458253E-01
          0                 5           1             4    7     1       0.5774220065E-05       4    6    1         0.3367928402E-03      0.8911943479E-03

    ------------------------------------------------
       NWT REQUIRED            5 OUTER ITERATIONS 
       AND A TOTAL OF          9 INNER ITERATIONS.
    ------------------------------------------------

 NO OUTPUT CONTROL FOR STRESS PERIOD   42   TIME STEP   23
 
 SOLVING FOR HEAD 
                                                   Max.-Head-Change                         Max.-Flux-Residual
  Residual-Control   Outer-Iter.   Inner-Iter.     Column Row Layer    Maximum-Head-Change  Column Row Layer    Maximum-Flux-Residual          L2-NORM 
          0                 1           2             1    1     1       0.2449318936E-02       4   13    1         0.1345537254E+00      0.4837552933E+00
          0                 2           2             4    7     1      -0.1142612496E-01       4    6    1        -0.6141401533E+00      0.1512372963E+01
          0                 3           2             4    7     1       0.1176497180E-01       4    6    1         0.6495557160E+00      0.1596355681E+01
          0                 4           2             4    7     1      -0.4681415265E-03       4    6    1        -0.2656699579E-01      0.6566355815E-01
          0                 5           1             4    7     1       0.5772384141E-05       4    6    1         0.3366855003E-03      0.8904495811E-03

    ------------------------------------------------
       NWT REQUIRED            5 OUTER ITERATIONS 
       AND A TOTAL OF          9 INNER ITERATIONS.
    ------------------------------------------------

 NO OUTPUT CONTROL FOR STRESS PERIOD   42   TIME STEP   24
 
 SOLVING FOR HEAD 
                                                   Max.-Head-Change                         Max.-Flux-Residual
  Residual-Control   Outer-Iter.   Inner-Iter.     Column Row Layer    Maximum-Head-Change  Column Row Layer    Maximum-Flux-Residual          L2-NORM 
          0                 1           2             1    1     1       0.2447294553E-02       4   13    1         0.1373783179E+00      0.4854582042E+00
          0                 2           2             4    7     1      -0.1142423875E-01       4    6    1        -0.6140322916E+00      0.1512171918E+01
          0                 3           2             4    7     1       0.1176286524E-01       4    6    1         0.6494389700E+00      0.1596061286E+01
          0                 4           2             4    7     1      -0.4680577037E-03       4    6    1        -0.2656222083E-01      0.6565088604E-01
          0                 5           1             4    7     1       0.5771350917E-05       4    6    1         0.3366249985E-03      0.8914134640E-03

    ------------------------------------------------
       NWT REQUIRED            5 OUTER ITERATIONS 
       AND A TOTAL OF          9 INNER ITERATIONS.
    ------------------------------------------------

 NO OUTPUT CONTROL FOR STRESS PERIOD   42   TIME STEP   25
 
 SOLVING FOR HEAD 
                                                   Max.-Head-Change                         Max.-Flux-Residual
  Residual-Control   Outer-Iter.   Inner-Iter.     Column Row Layer    Maximum-Head-Change  Column Row Layer    Maximum-Flux-Residual          L2-NORM 
          0                 1           2             1    1     1       0.2445251899E-02       4   13    1         0.1399362696E+00      0.4870548239E+00
          0                 2           2             4    7     1      -0.1142316460E-01       4    6    1        -0.6139681928E+00      0.1512058890E+01
          0                 3           2             4    7     1       0.1176161398E-01       4    6    1         0.6493694545E+00      0.1595895333E+01
          0                 4           2             4    7     1      -0.4680079149E-03       4    6    1        -0.2655937761E-01      0.6564455636E-01
          0                 5           1             4    7     1       0.5770736851E-05       4    6    1         0.3365889593E-03      0.8908679780E-03

    ------------------------------------------------
       NWT REQUIRED            5 OUTER ITERATIONS 
       AND A TOTAL OF          9 INNER ITERATIONS.
    ------------------------------------------------

 NO OUTPUT CONTROL FOR STRESS PERIOD   42   TIME STEP   26
 
 SOLVING FOR HEAD 
                                                   Max.-Head-Change                         Max.-Flux-Residual
  Residual-Control   Outer-Iter.   Inner-Iter.     Column Row Layer    Maximum-Head-Change  Column Row Layer    Maximum-Flux-Residual          L2-NORM 
          0                 1           2             4   13     1       0.2471757649E-02       4   13    1         0.1422559087E+00      0.4885447812E+00
          0                 2           2             4    7     1      -0.1142254439E-01       4    6    1        -0.6139286485E+00      0.1512010401E+01
          0                 3           2             4    7     1       0.1176084493E-01       4    6    1         0.6493265725E+00      0.1595789028E+01
          0                 4           2             4    7     1      -0.4679773133E-03       4    6    1        -0.2655762374E-01      0.6564034329E-01
          0                 5           1             4    7     1       0.5770359361E-05       4    6    1         0.3365667585E-03      0.8904734075E-03

    ------------------------------------------------
       NWT REQUIRED            5 OUTER ITERATIONS 
       AND A TOTAL OF          9 INNER ITERATIONS.
    ------------------------------------------------

 NO OUTPUT CONTROL FOR STRESS PERIOD   42   TIME STEP   27
 
 SOLVING FOR HEAD 
                                                   Max.-Head-Change                         Max.-Flux-Residual
  Residual-Control   Outer-Iter.   Inner-Iter.     Column Row Layer    Maximum-Head-Change  Column Row Layer    Maximum-Flux-Residual          L2-NORM 
          0                 1           2             4   13     1       0.2508393655E-02       4   13    1         0.1443555236E+00      0.4899338964E+00
          0                 2           2             4    7     1      -0.1145402949E-01       4    6    1        -0.6156134943E+00      0.1516200052E+01
          0                 3           2             4    7     1       0.1179350353E-01       4    6    1         0.6511291768E+00      0.1600218468E+01
          0                 4           2             4    7     1      -0.4692768416E-03       4    6    1        -0.2663135106E-01      0.6582213490E-01
          0                 5           1             4    7     1       0.5786383083E-05       4    6    1         0.3375011029E-03      0.8929064342E-03

    ------------------------------------------------
       NWT REQUIRED            5 OUTER ITERATIONS 
       AND A TOTAL OF          9 INNER ITERATIONS.
    ------------------------------------------------

 NO OUTPUT CONTROL FOR STRESS PERIOD   42   TIME STEP   28
 
 SOLVING FOR HEAD 
                                                   Max.-Head-Change                         Max.-Flux-Residual
  Residual-Control   Outer-Iter.   Inner-Iter.     Column Row Layer    Maximum-Head-Change  Column Row Layer    Maximum-Flux-Residual          L2-NORM 
          0                 1           2             4   13     1       0.2542389777E-02       4   13    1         0.1463028627E+00      0.4912537247E+00
          0                 2           2             4    7     1      -0.1143795550E-01       4    6    1        -0.6147442536E+00      0.1514105125E+01
          0                 3           2             4    7     1       0.1177666656E-01       4    6    1         0.6501992349E+00      0.1597931696E+01
          0                 4           2             4    7     1      -0.4686068768E-03       4    6    1        -0.2659331602E-01      0.6572774762E-01
          0                 5           1             4    7     1       0.5778122213E-05       4    6    1         0.3370190711E-03      0.8911860292E-03

    ------------------------------------------------
       NWT REQUIRED            5 OUTER ITERATIONS 
       AND A TOTAL OF          9 INNER ITERATIONS.
    ------------------------------------------------

 NO OUTPUT CONTROL FOR STRESS PERIOD   42   TIME STEP   29
 
 SOLVING FOR HEAD 
                                                   Max.-Head-Change                         Max.-Flux-Residual
  Residual-Control   Outer-Iter.   Inner-Iter.     Column Row Layer    Maximum-Head-Change  Column Row Layer    Maximum-Flux-Residual          L2-NORM 
          0                 1           2             4   13     1       0.2573052080E-02       4   13    1         0.1480577736E+00      0.4924572735E+00
          0                 2           2             4    7     1      -0.1142861755E-01       4    6    1        -0.6142340222E+00      0.1512893645E+01
          0                 3           2             4    7     1       0.1176682440E-01       4    6    1         0.6496552701E+00      0.1596594219E+01
          0                 4           2             4    7     1      -0.4682152443E-03       4    6    1        -0.2657106761E-01      0.6567309833E-01
          0                 5           1             4    7     1       0.5773293478E-05       4    6    1         0.3367371191E-03      0.8908827760E-03

    ------------------------------------------------
       NWT REQUIRED            5 OUTER ITERATIONS 
       AND A TOTAL OF          9 INNER ITERATIONS.
    ------------------------------------------------

 NO OUTPUT CONTROL FOR STRESS PERIOD   42   TIME STEP   30



 STREAM LISTING     PERIOD     42   STEP       30

 LAYER ROW COL. STREAM  RCH.  FLOW INTO     FLOW TO   FLOW OUT OF   OVRLND.     DIRECT     STREAM       STREAM     STREAM     STREAM   STREAMBED  STREAMBED
                SEG.NO.  NO.  STRM. RCH.    AQUIFER    STRM. RCH.    RUNOFF     PRECIP       ET          HEAD       DEPTH      WIDTH   CONDCTNC.   GRADIENT

   1    1    1     1     1    4.7249E+01  3.2762E-01   4.6921E+01  0.000E+00  0.000E+00  0.000E+00  1.09443E+03  1.381E+00  1.662E+01  7.477E-02  1.460E+00
   1    2    2     1     2    4.6921E+01  5.0759E-01   4.6413E+01  0.000E+00  0.000E+00  0.000E+00  1.08944E+03  1.379E+00  1.656E+01  1.159E-01  1.460E+00
   1    3    3     1     3    4.6413E+01  4.3309E-01   4.5980E+01  0.000E+00  0.000E+00  0.000E+00  1.08379E+03  1.376E+00  1.650E+01  9.898E-02  1.459E+00
   1    3    4     1     4    4.5980E+01  3.9899E-01   4.5581E+01  0.000E+00  0.000E+00  0.000E+00  1.07878E+03  1.373E+00  1.644E+01  9.124E-02  1.458E+00
   1    4    5     2     1    4.3581E+01  3.6514E-01   4.3216E+01  0.000E+00  0.000E+00  0.000E+00  1.07362E+03  1.681E+00  1.200E+01  7.800E-02  1.560E+00
   1    5    6     2     2    4.3216E+01  2.8042E-01   4.2936E+01  0.000E+00  0.000E+00  0.000E+00  1.06818E+03  1.674E+00  1.200E+01  6.000E-02  1.558E+00
   1    6    6     2     3    4.2936E+01  2.8003E-01   4.2656E+01  0.000E+00  0.000E+00  0.000E+00  1.06346E+03  1.667E+00  1.200E+01  6.000E-02  1.556E+00
   1    7    6     2     4    4.2656E+01  2.7964E-01   4.2376E+01  0.000E+00  0.000E+00  0.000E+00  1.05874E+03  1.661E+00  1.200E+01  6.000E-02  1.554E+00
   1    8    6     2     5    4.2376E+01  2.7924E-01   4.2097E+01  0.000E+00  0.000E+00  0.000E+00  1.05401E+03  1.654E+00  1.200E+01  6.000E-02  1.551E+00
   1    3    5     3     1    2.0000E+00  2.8252E-01   1.7175E+00  0.000E+00  0.000E+00  0.000E+00  1.07555E+03  1.909E+00  9.636E+00  7.227E-02  1.955E+00
   1    3    6     3     2    1.7175E+00  2.4905E-01   1.4684E+00  0.000E+00  0.000E+00  0.000E+00  1.07264E+03  1.727E+00  8.909E+00  6.682E-02  1.864E+00
   1    3    7     3     3    1.4684E+00  1.9718E-01   1.2712E+00  0.000E+00  0.000E+00  0.000E+00  1.06987E+03  1.555E+00  8.218E+00  5.547E-02  1.777E+00
   1    4    8     3     4    1.2712E+00  2.2567E-01   1.0456E+00  0.000E+00  0.000E+00  0.000E+00  1.06682E+03  1.364E+00  7.455E+00  6.709E-02  1.682E+00
   1    5    8     3     5    1.0456E+00  1.5790E-01   8.8768E-01  0.000E+00  0.000E+00  0.000E+00  1.06362E+03  1.164E+00  6.655E+00  4.991E-02  1.582E+00
   1    6    8     3     6    8.8768E-01  5.5980E-02   8.3170E-01  0.000E+00  0.000E+00  0.000E+00  1.06158E+03  1.036E+00  6.145E+00  1.844E-02  1.518E+00
   1    5   10     4     1    1.0000E+01  9.0919E-02   9.9091E+00  0.000E+00  0.000E+00  0.000E+00  1.07836E+03  6.368E-01  1.000E+01  2.500E-02  1.212E+00
   1    5    9     4     2    9.9091E+00  1.8158E-01   9.7275E+00  0.000E+00  0.000E+00  0.000E+00  1.07154E+03  6.315E-01  1.000E+01  5.000E-02  1.211E+00
   1    6    8     4     3    9.7275E+00  1.2689E-01   9.6006E+00  0.000E+00  0.000E+00  0.000E+00  1.06381E+03  6.256E-01  1.000E+01  3.500E-02  1.209E+00
   1    6    8     5     1    1.0432E+01  2.2686E-01   1.0205E+01  0.000E+00  0.000E+00  0.000E+00  1.05868E+03  6.790E-01  1.542E+01  6.166E-02  1.226E+00
   1    7    7     5     2    1.0205E+01  2.7894E-01   9.9265E+00  0.000E+00  0.000E+00  0.000E+00  1.05417E+03  6.732E-01  1.519E+01  7.594E-02  1.224E+00
   1    8    7     5     3    9.9265E+00  1.9221E-01   9.7343E+00  0.000E+00  0.000E+00  0.000E+00  1.04992E+03  6.676E-01  1.497E+01  5.241E-02  1.223E+00
   1    8    6     5     4    9.7343E+00  1.3577E-01   9.5985E+00  0.000E+00  0.000E+00  0.000E+00  1.04691E+03  6.637E-01  1.482E+01  3.706E-02  1.221E+00
   1    9    6     6     1    4.4415E+01  2.8323E-01   4.4132E+01  0.000E+00  0.000E+00  0.000E+00  1.04445E+03  1.721E+00  1.200E+01  6.000E-02  1.574E+00
   1   10    7     6     2    4.4132E+01  2.8283E-01   4.3849E+01  0.000E+00  0.000E+00  0.000E+00  1.03990E+03  1.714E+00  1.200E+01  6.000E-02  1.571E+00
   1   11    7     6     3    4.3849E+01  2.8244E-01   4.3567E+01  0.000E+00  0.000E+00  0.000E+00  1.03534E+03  1.707E+00  1.200E+01  6.000E-02  1.569E+00
   1   12    7     6     4    4.3567E+01  2.8204E-01   4.3285E+01  0.000E+00  0.000E+00  0.000E+00  1.03079E+03  1.701E+00  1.200E+01  6.000E-02  1.567E+00
   1   13    7     6     5    4.3285E+01  1.5164E-02   4.3270E+01  0.000E+00  0.000E+00  0.000E+00  1.02761E+03  1.697E+00  1.200E+01  2.400E-02  2.106E-01
   1   14    9     7     1    1.5000E+02  1.3520E+00   1.4865E+02  0.000E+00  0.000E+00  0.000E+00  1.03987E+03  2.288E+00  5.529E+01  5.593E-01  8.057E-01
   1   13    8     7     2    1.4865E+02  1.8768E+00   1.4677E+02  0.000E+00  0.000E+00  0.000E+00  1.03478E+03  2.279E+00  5.526E+01  6.148E-01  1.018E+00
   1   13    7     7     3    1.4677E+02  1.5161E+00   1.4526E+02  0.000E+00  0.000E+00  0.000E+00  1.02969E+03  2.270E+00  5.522E+01  5.584E-01  9.050E-01
   1   13    6     8     1    1.8852E+02  1.0325E+00   1.8749E+02  0.000E+00  0.000E+00  0.000E+00  1.02494E+03  3.066E+00  4.445E+01  4.530E-01  7.598E-01
   1   13    5     8     2    1.8749E+02  2.4307E-01   1.8725E+02  0.000E+00  0.000E+00  0.000E+00  1.01869E+03  3.062E+00  4.440E+01  4.524E-01  1.791E-01
   1   13    4     8     3    1.8725E+02 -2.2811E+00   1.8953E+02  0.000E+00  0.000E+00  0.000E+00  1.01244E+03  3.068E+00  4.449E+01  4.533E+00 -1.677E-01
   1   13    3     8     4    1.8953E+02 -3.5749E+00   1.9311E+02  0.000E+00  0.000E+00  0.000E+00  1.00621E+03  3.086E+00  4.475E+01  4.560E+00 -2.613E-01
   1   13    2     8     5    1.9311E+02 -2.5648E+00   1.9567E+02  0.000E+00  0.000E+00  0.000E+00  9.99979E+02  3.104E+00  4.501E+01  4.587E+00 -1.864E-01
   1   13    1     8     6    1.9567E+02 -2.0101E+00   1.9768E+02  0.000E+00  0.000E+00  0.000E+00  9.94993E+02  3.118E+00  4.521E+01  2.764E+00 -2.424E-01
   1    8    6     9     1    7.2799E+00  0.0000E+00   7.2799E+00  0.000E+00  0.000E+00  0.000E+00  1.08062E+03  1.873E+00  4.000E+00  0.000E+00  1.624E+00
   1    8    5     9     2    7.2799E+00  0.0000E+00   7.2799E+00  0.000E+00  0.000E+00  0.000E+00  1.08012E+03  1.873E+00  4.000E+00  0.000E+00  1.624E+00





UNSATURATED ZONE PACKAGE VOLUMETRIC BUDGET FOR  TIME STEP    30 STRESS PERIOD   42
  ------------------------------------------------------------------------------



     CUMULATIVE VOLUMES      L**3       RATES FOR THIS TIME STEP      L**3/T
     ------------------                 ------------------------

           IN:                                      IN:
           ---                                      ---
        INFILTRATION =  1936918366.1501          INFILTRATION =          11.6876

          OUT:                                     OUT:
          ----                                     ----
              UZF ET =  1555059375.9834                UZF ET =          11.6075
        UZF RECHARGE =    79902034.3175          UZF RECHARGE =       0.0000E+00

            IN - OUT =   301956955.8493              IN - OUT =       8.0053E-02

          STORAGE:                                 STORAGE:
          --------                                 --------
      STORAGE CHANGE =   301958472.7651        STORAGE CHANGE =       8.0053E-02

 PERCENT DISCREPANCY IS DIFFERENCE BETWEEN IN-OUT MINUS CHANGE IN STORAGE
 DIVIDED BY THE AVERAGE OF IN AND OUT TIMES 100

 PERCENT DISCREPANCY =          -0.00     PERCENT DISCREPANCY =           0.00






1
  VOLUMETRIC BUDGET FOR AGRICULTURAL FIELDS AT  END OF TIME STEP   30, STRESS PERIOD  42
  ------------------------------------------------------------------------------

     CUMULATIVE VOLUMES      L**3       RATES FOR THIS TIME STEP      L**3/T
     ------------------                 ------------------------

           IN:                                      IN:
           ---                                      ---
               AG WELLS  =   514792768.0000                 AG WELLS  =           0.0000
      DIVERSION SEGMENTS =   947193280.0000        DIVERSION SEGMENTS =           7.2799
           GW IRRIGATION =           0.0000             GW IRRIGATION =           0.0000
           SW IRRIGATION =           0.0000             SW IRRIGATION =           0.0000
        SYSTEM LOSSES GW =           0.0000          SYSTEM LOSSES GW =           0.0000
        SYSTEM LOSSES SW =           0.0000          SYSTEM LOSSES SW =           0.0000

                TOTAL IN =  1461986048.0000                  TOTAL IN =           7.2799

          OUT:                                     OUT:
          ----                                     ----
               AG WELLS  =           0.0000                 AG WELLS  =           0.0000
      DIVERSION SEGMENTS =           0.0000        DIVERSION SEGMENTS =           0.0000
           GW IRRIGATION =   514792768.0000             GW IRRIGATION =           0.0000
           SW IRRIGATION =   947211328.0000             SW IRRIGATION =           7.2801
        SYSTEM LOSSES GW =           0.0000          SYSTEM LOSSES GW =           0.0000
        SYSTEM LOSSES SW =           0.0000          SYSTEM LOSSES SW =           0.0000

               TOTAL OUT =  1462004096.0000                 TOTAL OUT =           7.2801

                IN - OUT =      -18048.0000                  IN - OUT =      -1.4544E-04

     PERCENT DISCREPANCY =          -0.00         PERCENT DISCREPANCY =          -0.00



1
  VOLUMETRIC BUDGET FOR ENTIRE MODEL AT END OF TIME STEP   30, STRESS PERIOD  42
  ------------------------------------------------------------------------------

     CUMULATIVE VOLUMES      L**3       RATES FOR THIS TIME STEP      L**3/T
     ------------------                 ------------------------

           IN:                                      IN:
           ---                                      ---
             STORAGE     =   874872832.0000               STORAGE     =           0.6625
       CONSTANT HEAD     =           0.0000         CONSTANT HEAD     =           0.0000
     HEAD DEP BOUNDS     =    30869714.0000       HEAD DEP BOUNDS     =           0.2869
      STREAM LEAKAGE     =  1302902656.0000        STREAM LEAKAGE     =          12.7194
        UZF RECHARGE     =    79902024.0000          UZF RECHARGE     =           0.0000
               GW ET     =           0.0000                 GW ET     =           0.0000
     SURFACE LEAKAGE     =           0.0000       SURFACE LEAKAGE     =           0.0000
           AG WELLS      =           0.0000             AG WELLS      =           0.0000

                TOTAL IN =  2288547072.0000                  TOTAL IN =          13.6687

          OUT:                                     OUT:
          ----                                     ----
             STORAGE     =   592798912.0000               STORAGE     =           2.9445
       CONSTANT HEAD     =           0.0000         CONSTANT HEAD     =           0.0000
     HEAD DEP BOUNDS     =    31390698.0000       HEAD DEP BOUNDS     =           0.2934
      STREAM LEAKAGE     =  1146708736.0000        STREAM LEAKAGE     =          10.4309
        UZF RECHARGE     =           0.0000          UZF RECHARGE     =           0.0000
               GW ET     =     2857194.5000                 GW ET     =           0.0000
     SURFACE LEAKAGE     =           0.0000       SURFACE LEAKAGE     =           0.0000
           AG WELLS      =   514792768.0000             AG WELLS      =           0.0000

               TOTAL OUT =  2288548352.0000                 TOTAL OUT =          13.6687

                IN - OUT =       -1280.0000                  IN - OUT =       4.3869E-05

     PERCENT DISCREPANCY =          -0.00         PERCENT DISCREPANCY =           0.00






         TIME SUMMARY AT END OF TIME STEP   30 IN STRESS PERIOD   42
                    SECONDS     MINUTES      HOURS       DAYS        YEARS
                    -----------------------------------------------------------
   TIME STEP LENGTH  87667.      1461.1      24.352      1.0147     2.77799E-03
 STRESS PERIOD TIME 2.63000E+06  43833.      730.56      30.440     8.33397E-02
         TOTAL TIME 1.07916E+08 1.79859E+06  29977.      1249.0      3.4196    
1
1
                            STRESS PERIOD NO.   43, LENGTH =   2630000.    
                            -----------------------------------------------

                              NUMBER OF TIME STEPS =    30

                               MULTIPLIER FOR DELT =     1.000

                            INITIAL TIME STEP SIZE =   87666.66    

 REUSING NON-PARAMETER GHB CELLS FROM LAST STRESS PERIOD

      2 GHB CELLS

 REUSING STREAM SEGMENT DATA FROM LAST STRESS PERIOD



            AREAL INFILTRATION RATE
 READING ON UNIT   19 WITH FORMAT: (10F4.0)            

            1           2           3           4           5           6           7           8           9          10
 ........................................................................................................................
   1   1.2000E-09   0.000       0.000       0.000       0.000       0.000       0.000       0.000       0.000       0.000    
   2   2.1000E-09  2.0000E-09  8.0000E-10  8.5000E-09   0.000       0.000       0.000       0.000       0.000       0.000    
   3   5.0000E-10  1.1000E-09  8.8000E-09  5.5000E-09   0.000       0.000       0.000       0.000       0.000       0.000    
   4   8.5000E-09  1.1000E-09  1.1000E-09  1.1000E-09  2.0000E-09   0.000       0.000       0.000       0.000       0.000    
   5   8.5000E-09  1.1000E-09  1.1000E-09  1.1000E-09  1.1000E-09   0.000       0.000       0.000       0.000       0.000    
   6   8.5000E-09  5.2000E-09  2.1000E-09  1.1000E-09  1.5000E-09   0.000       0.000       0.000       0.000       0.000    
   7   8.5000E-09  5.2000E-09  2.1000E-09  1.2000E-09  2.0000E-09   0.000       0.000       0.000       0.000       0.000    
   8   5.0000E-10  5.2000E-09  2.1000E-09  1.2000E-09  5.0000E-09   0.000       0.000       0.000       0.000       0.000    
   9   5.0000E-10  5.2000E-09  2.1000E-09  1.2000E-09  5.0000E-09   0.000       0.000       0.000       0.000       0.000    
  10   5.0000E-10  5.2000E-09  2.1000E-09  1.2000E-09  5.8000E-09   0.000       0.000       0.000       0.000       0.000    
  11   1.0000E-10  1.1000E-09  1.1000E-09  1.2000E-09  5.0000E-09   0.000       0.000       0.000       0.000       0.000    
  12   1.1000E-09  1.1000E-09  1.1000E-09  1.1000E-09  2.0000E-09   0.000       0.000       0.000       0.000       0.000    
  13   1.1000E-09  2.2000E-09  2.2000E-09  2.1000E-09  1.0000E-09   0.000       0.000       0.000       0.000       0.000    
  14   2.0000E-10  5.5000E-09  5.5000E-09  5.2000E-09  1.0000E-09   0.000       0.000       0.000       0.000       0.000    
  15    0.000      8.8000E-09  8.8000E-09   0.000       0.000       0.000       0.000       0.000       0.000       0.000    

                  ET RATE =  1.500000E-07

 USING ET EXTINCTION DEPTH FROM PREVIOUS STRESS PERIOD. CURRENT PERIOD IS:      43

 USING EXTINCTION WATER CONTENT FROM PREVIOUS STRESS PERIOD. CURRENT PERIOD IS:      43

 USING AIR ENTRY PRESSURE FROM PREVIOUS STRESS PERIOD. CURRENT PERIOD IS:      43

 USING ROOT PRESSURE HEAD FROM PREVIOUS STRESS PERIOD. CURRENT PERIOD IS:      43

 USING ROOT ACTIVITY FROM PREVIOUS STRESS PERIOD. CURRENT PERIOD IS:      43

 PROCESSING AG STRESS PERIOD DATA

 READING AG STRESS PERIOD DATA

 READING IRRIGATION SEGMENT

 READING IRRIGATION WELL

 READING SUPPLEMENTAL WELL

 END PROCESSING AG STRESS PERIOD DATA OPTIONS
 
 SOLVING FOR HEAD 
                                                   Max.-Head-Change                         Max.-Flux-Residual
  Residual-Control   Outer-Iter.   Inner-Iter.     Column Row Layer    Maximum-Head-Change  Column Row Layer    Maximum-Flux-Residual          L2-NORM 
          0                 1           2             4   13     1       0.2547138860E-02       4   13    1         0.1465553798E+00      0.4905585482E+00
          0                 2           2             4    7     1      -0.4868788880E-01       4    6    1        -0.2615301114E+01      0.6435899831E+01
          0                 3           2             4    7     1       0.5054995588E-01       4    6    1         0.2790795735E+01      0.6858068493E+01
          0                 4           2             4    7     1      -0.2011472419E-02       4    8    1        -0.1141485383E+00      0.2820994508E+00
          0                 5           1             4    7     1       0.2480225797E-04       4    8    1         0.1446602261E-02      0.3832672392E-02

    ------------------------------------------------
       NWT REQUIRED            5 OUTER ITERATIONS 
       AND A TOTAL OF          9 INNER ITERATIONS.
    ------------------------------------------------

 NO OUTPUT CONTROL FOR STRESS PERIOD   43   TIME STEP    1
 
 SOLVING FOR HEAD 
                                                   Max.-Head-Change                         Max.-Flux-Residual
  Residual-Control   Outer-Iter.   Inner-Iter.     Column Row Layer    Maximum-Head-Change  Column Row Layer    Maximum-Flux-Residual          L2-NORM 
          0                 1           2             7   13     1       0.2936515819E-02       7   13    1         0.1587714381E+00      0.4771772102E+00
          0                 2           2             4    7     1      -0.4981521595E-02       4    6    1        -0.2679709935E+00      0.6816878836E+00
          0                 3           2             4    7     1       0.4393171207E-02       4    6    1         0.2425689426E+00      0.5968488120E+00
          0                 4           1             4    7     1       0.5463024440E-04       5    8    1         0.3017243643E-02      0.8809671752E-02

    ------------------------------------------------
       NWT REQUIRED            4 OUTER ITERATIONS 
       AND A TOTAL OF          7 INNER ITERATIONS.
    ------------------------------------------------

 NO OUTPUT CONTROL FOR STRESS PERIOD   43   TIME STEP    2
 
 SOLVING FOR HEAD 
                                                   Max.-Head-Change                         Max.-Flux-Residual
  Residual-Control   Outer-Iter.   Inner-Iter.     Column Row Layer    Maximum-Head-Change  Column Row Layer    Maximum-Flux-Residual          L2-NORM 
          0                 1           2             1    1     1       0.2200926015E-02       4   13    1         0.1148025174E+00      0.4498449160E+00
          0                 2           2             4    7     1      -0.5797780374E-01       4    6    1        -0.3114252841E+01      0.7662596517E+01
          0                 3           2             4    7     1       0.6021944357E-01       4    6    1         0.3324629959E+01      0.8169349727E+01
          0                 4           2             4    7     1      -0.2396248150E-02       4    8    1        -0.1359853614E+00      0.3452021400E+00
          0                 5           1             7   13     1       0.9473854897E-04       7   13    1         0.5428299912E-02      0.7129754972E-02

    ------------------------------------------------
       NWT REQUIRED            5 OUTER ITERATIONS 
       AND A TOTAL OF          9 INNER ITERATIONS.
    ------------------------------------------------

 NO OUTPUT CONTROL FOR STRESS PERIOD   43   TIME STEP    3
 
 SOLVING FOR HEAD 
                                                   Max.-Head-Change                         Max.-Flux-Residual
  Residual-Control   Outer-Iter.   Inner-Iter.     Column Row Layer    Maximum-Head-Change  Column Row Layer    Maximum-Flux-Residual          L2-NORM 
          0                 1           2             4   13     1       0.3102660544E-02       4   13    1         0.1789883639E+00      0.5184480019E+00
          0                 2           2             4    7     1      -0.1259664331E-01       4    6    1        -0.6769726788E+00      0.1675636339E+01
          0                 3           2             4    7     1       0.1244300347E-01       4    6    1         0.6869864245E+00      0.1688916059E+01
          0                 4           2             4    7     1      -0.4486871183E-03       4    6    1        -0.2546292718E-01      0.6243546037E-01
          0                 5           1             4   13     1      -0.5998684590E-04       4   13    1        -0.3741164265E-02      0.6768978428E-02

    ------------------------------------------------
       NWT REQUIRED            5 OUTER ITERATIONS 
       AND A TOTAL OF          9 INNER ITERATIONS.
    ------------------------------------------------

 NO OUTPUT CONTROL FOR STRESS PERIOD   43   TIME STEP    4
 
 SOLVING FOR HEAD 
                                                   Max.-Head-Change                         Max.-Flux-Residual
  Residual-Control   Outer-Iter.   Inner-Iter.     Column Row Layer    Maximum-Head-Change  Column Row Layer    Maximum-Flux-Residual          L2-NORM 
          0                 1           2             4   13     1       0.3167888647E-02       4   13    1         0.1826957097E+00      0.4971482447E+00
          0                 2           2             4    7     1      -0.5454742541E-01       4    6    1        -0.2930039913E+01      0.7210604302E+01
          0                 3           2             4    7     1       0.5664831662E-01       4    6    1         0.3127476950E+01      0.7685195259E+01
          0                 4           2             4    7     1      -0.2254142743E-02       4    8    1        -0.1279206265E+00      0.3216850895E+00
          0                 5           1             7   13     1       0.7101951962E-04       7   13    1         0.4069821809E-02      0.5949823229E-02

    ------------------------------------------------
       NWT REQUIRED            5 OUTER ITERATIONS 
       AND A TOTAL OF          9 INNER ITERATIONS.
    ------------------------------------------------

 NO OUTPUT CONTROL FOR STRESS PERIOD   43   TIME STEP    5
 
 SOLVING FOR HEAD 
                                                   Max.-Head-Change                         Max.-Flux-Residual
  Residual-Control   Outer-Iter.   Inner-Iter.     Column Row Layer    Maximum-Head-Change  Column Row Layer    Maximum-Flux-Residual          L2-NORM 
          0                 1           2             4   13     1       0.4088324456E-02       4   13    1         0.2358784908E+00      0.5681433693E+00
          0                 2           2             4    7     1      -0.1454831269E-01       4    6    1        -0.7818092334E+00      0.1933358586E+01
          0                 3           2             4    7     1       0.1448619779E-01       4    6    1         0.7997886609E+00      0.1966136020E+01
          0                 4           2             4    7     1      -0.4385851759E-03       4    6    1        -0.2488972228E-01      0.6113351548E-01
          0                 5           1             4   13     1      -0.4801192955E-04       4   13    1        -0.2993650876E-02      0.7969364554E-02

    ------------------------------------------------
       NWT REQUIRED            5 OUTER ITERATIONS 
       AND A TOTAL OF          9 INNER ITERATIONS.
    ------------------------------------------------

 NO OUTPUT CONTROL FOR STRESS PERIOD   43   TIME STEP    6
 
 SOLVING FOR HEAD 
                                                   Max.-Head-Change                         Max.-Flux-Residual
  Residual-Control   Outer-Iter.   Inner-Iter.     Column Row Layer    Maximum-Head-Change  Column Row Layer    Maximum-Flux-Residual          L2-NORM 
          0                 1           2             4   13     1       0.4102862630E-02       4   13    1         0.2366458099E+00      0.5475045307E+00
          0                 2           2             4    7     1      -0.5115658003E-01       4    6    1        -0.2747941191E+01      0.6763591671E+01
          0                 3           2             4    7     1       0.5311837776E-01       4    6    1         0.2932597173E+01      0.7206555446E+01
          0                 4           2             4    7     1      -0.2113676745E-02       4    8    1        -0.1199489492E+00      0.2993531824E+00
          0                 5           1             7   13     1       0.4924889480E-04       7   13    1         0.2822936722E-02      0.4945621894E-02

    ------------------------------------------------
       NWT REQUIRED            5 OUTER ITERATIONS 
       AND A TOTAL OF          9 INNER ITERATIONS.
    ------------------------------------------------

 NO OUTPUT CONTROL FOR STRESS PERIOD   43   TIME STEP    7
 
 SOLVING FOR HEAD 
                                                   Max.-Head-Change                         Max.-Flux-Residual
  Residual-Control   Outer-Iter.   Inner-Iter.     Column Row Layer    Maximum-Head-Change  Column Row Layer    Maximum-Flux-Residual          L2-NORM 
          0                 1           2             4   13     1       0.4856785977E-02       4   13    1         0.2801920254E+00      0.6143701080E+00
          0                 2           2             4    7     1      -0.1936563023E-01       4    6    1        -0.1040540645E+01      0.2568820369E+01
          0                 3           2             4    7     1       0.1894093814E-01       4    6    1         0.1045727063E+01      0.2571120070E+01
          0                 4           2             4    7     1      -0.9754797946E-03       4    6    1        -0.5535690646E-01      0.1356000217E+00
          0                 5           2             4    7     1       0.9581924014E-03       4    6    1         0.5588558567E-01      0.1379359194E+00
          0                 6           2             4    7     1       0.1386771310E-03       5    6    1         0.8088117434E-02      0.2018587402E-01
          0                 7           1             4    7     1       0.4542730010E-04       5    6    1         0.2649446065E-02      0.6889044530E-02

    ------------------------------------------------
       NWT REQUIRED            7 OUTER ITERATIONS 
       AND A TOTAL OF         13 INNER ITERATIONS.
    ------------------------------------------------

 NO OUTPUT CONTROL FOR STRESS PERIOD   43   TIME STEP    8
 
 SOLVING FOR HEAD 
                                                   Max.-Head-Change                         Max.-Flux-Residual
  Residual-Control   Outer-Iter.   Inner-Iter.     Column Row Layer    Maximum-Head-Change  Column Row Layer    Maximum-Flux-Residual          L2-NORM 
          0                 1           2             4   13     1       0.4938125411E-02       4   13    1         0.2848165320E+00      0.6001725862E+00
          0                 2           2             4    7     1      -0.4596645888E-01       4    6    1        -0.2469182479E+01      0.6078675989E+01
          0                 3           2             4    7     1       0.4771574223E-01       4    6    1         0.2634327672E+01      0.6473842301E+01
          0                 4           2             4    7     1      -0.1898691786E-02       4    8    1        -0.1077482051E+00      0.2668037761E+00
          0                 5           1             4    7     1       0.2341163142E-04       4    8    1         0.1365491569E-02      0.3785458899E-02

    ------------------------------------------------
       NWT REQUIRED            5 OUTER ITERATIONS 
       AND A TOTAL OF          9 INNER ITERATIONS.
    ------------------------------------------------

 NO OUTPUT CONTROL FOR STRESS PERIOD   43   TIME STEP    9
 
 SOLVING FOR HEAD 
                                                   Max.-Head-Change                         Max.-Flux-Residual
  Residual-Control   Outer-Iter.   Inner-Iter.     Column Row Layer    Maximum-Head-Change  Column Row Layer    Maximum-Flux-Residual          L2-NORM 
          0                 1           2             4   13     1       0.5492485924E-02       4   13    1         0.3168183644E+00      0.6570540412E+00
          0                 2           2             4    7     1      -0.3859249357E-01       4    6    1        -0.2073139510E+01      0.5107301725E+01
          0                 3           2             4    7     1       0.4004012217E-01       4    6    1         0.2210571237E+01      0.5432721761E+01
          0                 4           2             4    7     1      -0.1593260508E-02       4    8    1        -0.9041467429E-01      0.2234810280E+00
          0                 5           1             4    7     1       0.1964554971E-04       4    8    1         0.1145825346E-02      0.3041044003E-02

    ------------------------------------------------
       NWT REQUIRED            5 OUTER ITERATIONS 
       AND A TOTAL OF          9 INNER ITERATIONS.
    ------------------------------------------------

 NO OUTPUT CONTROL FOR STRESS PERIOD   43   TIME STEP   10
 
 SOLVING FOR HEAD 
                                                   Max.-Head-Change                         Max.-Flux-Residual
  Residual-Control   Outer-Iter.   Inner-Iter.     Column Row Layer    Maximum-Head-Change  Column Row Layer    Maximum-Flux-Residual          L2-NORM 
          0                 1           2             4   13     1       0.5938807662E-02       4   13    1         0.3425412128E+00      0.6691642235E+00
          0                 2           2             4    7     1      -0.1627510972E-01       4    6    1        -0.8745351663E+00      0.2156444229E+01
          0                 3           2             4    7     1       0.1646097051E-01       4    6    1         0.9088111785E+00      0.2233861396E+01
          0                 4           2             4    7     1      -0.6505427799E-03       4    6    1        -0.3691764117E-01      0.9078842056E-01
          0                 5           1             4   13     1      -0.4463765548E-04       4   13    1        -0.2782662981E-02      0.4848135079E-02

    ------------------------------------------------
       NWT REQUIRED            5 OUTER ITERATIONS 
       AND A TOTAL OF          9 INNER ITERATIONS.
    ------------------------------------------------

 NO OUTPUT CONTROL FOR STRESS PERIOD   43   TIME STEP   11
 
 SOLVING FOR HEAD 
                                                   Max.-Head-Change                         Max.-Flux-Residual
  Residual-Control   Outer-Iter.   Inner-Iter.     Column Row Layer    Maximum-Head-Change  Column Row Layer    Maximum-Flux-Residual          L2-NORM 
          0                 1           2             4   13     1       0.5757754468E-02       4   13    1         0.3320066021E+00      0.6599587969E+00
          0                 2           2             4    7     1      -0.4954308576E-01       4    6    1        -0.2661262297E+01      0.6552231440E+01
          0                 3           2             4    7     1       0.5143832830E-01       4    6    1         0.2839843667E+01      0.6978894871E+01
          0                 4           2             4    7     1      -0.2046823091E-02       4    8    1        -0.1161548588E+00      0.2889943758E+00
          0                 5           1             7   13     1       0.3908197134E-04       7   13    1         0.2240600470E-02      0.4513956357E-02

    ------------------------------------------------
       NWT REQUIRED            5 OUTER ITERATIONS 
       AND A TOTAL OF          9 INNER ITERATIONS.
    ------------------------------------------------

 NO OUTPUT CONTROL FOR STRESS PERIOD   43   TIME STEP   12
 
 SOLVING FOR HEAD 
                                                   Max.-Head-Change                         Max.-Flux-Residual
  Residual-Control   Outer-Iter.   Inner-Iter.     Column Row Layer    Maximum-Head-Change  Column Row Layer    Maximum-Flux-Residual          L2-NORM 
          0                 1           2             4   13     1       0.6319436725E-02       4   13    1         0.3644304536E+00      0.7181172804E+00
          0                 2           2             4    7     1      -0.2163277970E-01       4    6    1        -0.1162279466E+01      0.2869396853E+01
          0                 3           2             4    7     1       0.2216928015E-01       4    6    1         0.1223956233E+01      0.3008370348E+01
          0                 4           2             4    7     1      -0.7365398385E-03       4    6    1        -0.4179770666E-01      0.1033347048E+00
          0                 5           1             4    7     1       0.2427495821E-04       4    6    1         0.1415827734E-02      0.3743123632E-02

    ------------------------------------------------
       NWT REQUIRED            5 OUTER ITERATIONS 
       AND A TOTAL OF          9 INNER ITERATIONS.
    ------------------------------------------------

 NO OUTPUT CONTROL FOR STRESS PERIOD   43   TIME STEP   13
 
 SOLVING FOR HEAD 
                                                   Max.-Head-Change                         Max.-Flux-Residual
  Residual-Control   Outer-Iter.   Inner-Iter.     Column Row Layer    Maximum-Head-Change  Column Row Layer    Maximum-Flux-Residual          L2-NORM 
          0                 1           2             4   13     1       0.6284054443E-02       4   13    1         0.3623060293E+00      0.7006291878E+00
          0                 2           2             4    7     1      -0.4603081667E-01       4    6    1        -0.2472610233E+01      0.6088713111E+01
          0                 3           2             4    7     1       0.4778231591E-01       4    6    1         0.2638001314E+01      0.6483034310E+01
          0                 4           2             4    7     1      -0.1901340920E-02       4    8    1        -0.1078984985E+00      0.2671734464E+00
          0                 5           1             4    7     1       0.2344429606E-04       4    8    1         0.1367396224E-02      0.3780976252E-02

    ------------------------------------------------
       NWT REQUIRED            5 OUTER ITERATIONS 
       AND A TOTAL OF          9 INNER ITERATIONS.
    ------------------------------------------------

 NO OUTPUT CONTROL FOR STRESS PERIOD   43   TIME STEP   14
 
 SOLVING FOR HEAD 
                                                   Max.-Head-Change                         Max.-Flux-Residual
  Residual-Control   Outer-Iter.   Inner-Iter.     Column Row Layer    Maximum-Head-Change  Column Row Layer    Maximum-Flux-Residual          L2-NORM 
          0                 1           2             4   13     1       0.6714663823E-02       4   13    1         0.3871513136E+00      0.7500810250E+00
          0                 2           2             4    7     1      -0.3889758864E-01       4    6    1        -0.2089496819E+01      0.5148989247E+01
          0                 3           2             4    7     1       0.4035731904E-01       4    6    1         0.2228081278E+01      0.5475867363E+01
          0                 4           2             4    7     1      -0.1605882492E-02       4    8    1        -0.9113093231E-01      0.2252480319E+00
          0                 5           1             4    7     1       0.1980118357E-04       4    8    1         0.1154902439E-02      0.3057051090E-02

    ------------------------------------------------
       NWT REQUIRED            5 OUTER ITERATIONS 
       AND A TOTAL OF          9 INNER ITERATIONS.
    ------------------------------------------------

 NO OUTPUT CONTROL FOR STRESS PERIOD   43   TIME STEP   15
 
 SOLVING FOR HEAD 
                                                   Max.-Head-Change                         Max.-Flux-Residual
  Residual-Control   Outer-Iter.   Inner-Iter.     Column Row Layer    Maximum-Head-Change  Column Row Layer    Maximum-Flux-Residual          L2-NORM 
          0                 1           2             4   13     1       0.7054972636E-02       4   13    1         0.4067480687E+00      0.7599272086E+00
          0                 2           2             4    7     1      -0.1661707243E-01       4    6    1        -0.8928713520E+00      0.2202973970E+01
          0                 3           2             4    7     1       0.1673293668E-01       4    6    1         0.9238239366E+00      0.2270849018E+01
          0                 4           2             4    7     1      -0.6452032359E-03       4    6    1        -0.3661455610E-01      0.8997380962E-01
          0                 5           1             4   13     1      -0.5260602331E-04       4   13    1        -0.3280061161E-02      0.5655935548E-02

    ------------------------------------------------
       NWT REQUIRED            5 OUTER ITERATIONS 
       AND A TOTAL OF          9 INNER ITERATIONS.
    ------------------------------------------------

 NO OUTPUT CONTROL FOR STRESS PERIOD   43   TIME STEP   16
 
 SOLVING FOR HEAD 
                                                   Max.-Head-Change                         Max.-Flux-Residual
  Residual-Control   Outer-Iter.   Inner-Iter.     Column Row Layer    Maximum-Head-Change  Column Row Layer    Maximum-Flux-Residual          L2-NORM 
          0                 1           2             4   13     1       0.6778537944E-02       4   13    1         0.3907024444E+00      0.7433423886E+00
          0                 2           2             4    7     1      -0.4898755224E-01       4    6    1        -0.2631404088E+01      0.6480075742E+01
          0                 3           2             4    7     1       0.5085971668E-01       4    6    1         0.2807898392E+01      0.6900546892E+01
          0                 4           2             4    7     1      -0.2023798612E-02       4    8    1        -0.1148481508E+00      0.2854651607E+00
          0                 5           1             7   13     1       0.3539580045E-04       7   13    1         0.2029591609E-02      0.4372706183E-02

    ------------------------------------------------
       NWT REQUIRED            5 OUTER ITERATIONS 
       AND A TOTAL OF          9 INNER ITERATIONS.
    ------------------------------------------------

 NO OUTPUT CONTROL FOR STRESS PERIOD   43   TIME STEP   17
 
 SOLVING FOR HEAD 
                                                   Max.-Head-Change                         Max.-Flux-Residual
  Residual-Control   Outer-Iter.   Inner-Iter.     Column Row Layer    Maximum-Head-Change  Column Row Layer    Maximum-Flux-Residual          L2-NORM 
          0                 1           2             4   13     1       0.7233734927E-02       4   13    1         0.4169732055E+00      0.7941888182E+00
          0                 2           2             4    7     1      -0.2187784385E-01       4    6    1        -0.1175418563E+01      0.2902846575E+01
          0                 3           2             4    7     1       0.2234163860E-01       4    6    1         0.1233470354E+01      0.3031855717E+01
          0                 4           2             4    7     1      -0.6788279393E-03       4    6    1        -0.3852266641E-01      0.9526925751E-01
          0                 5           1             4    7     1       0.6529466093E-04       4    6    1         0.3808258828E-02      0.9461844491E-02

    ------------------------------------------------
       NWT REQUIRED            5 OUTER ITERATIONS 
       AND A TOTAL OF          9 INNER ITERATIONS.
    ------------------------------------------------

 NO OUTPUT CONTROL FOR STRESS PERIOD   43   TIME STEP   18
 
 SOLVING FOR HEAD 
                                                   Max.-Head-Change                         Max.-Flux-Residual
  Residual-Control   Outer-Iter.   Inner-Iter.     Column Row Layer    Maximum-Head-Change  Column Row Layer    Maximum-Flux-Residual          L2-NORM 
          0                 1           2             4   13     1       0.7120715388E-02       4   13    1         0.4103671677E+00      0.7728324444E+00
          0                 2           2             4    7     1      -0.4569385927E-01       4    6    1        -0.2454488982E+01      0.6045242836E+01
          0                 3           2             4    7     1       0.4743130742E-01       4    6    1         0.2618621388E+01      0.6435524666E+01
          0                 4           2             4    7     1      -0.1887373410E-02       4    8    1        -0.1071057871E+00      0.2651206452E+00
          0                 5           1             4    7     1       0.2327207146E-04       4    8    1         0.1357350247E-02      0.3720047828E-02

    ------------------------------------------------
       NWT REQUIRED            5 OUTER ITERATIONS 
       AND A TOTAL OF          9 INNER ITERATIONS.
    ------------------------------------------------

 NO OUTPUT CONTROL FOR STRESS PERIOD   43   TIME STEP   19
 
 SOLVING FOR HEAD 
                                                   Max.-Head-Change                         Max.-Flux-Residual
  Residual-Control   Outer-Iter.   Inner-Iter.     Column Row Layer    Maximum-Head-Change  Column Row Layer    Maximum-Flux-Residual          L2-NORM 
          0                 1           2             4   13     1       0.7467366090E-02       4   13    1         0.4303642596E+00      0.8157662138E+00
          0                 2           2             4    7     1      -0.3864507817E-01       4    6    1        -0.2075909666E+01      0.5116593468E+01
          0                 3           2             4    7     1       0.4009421787E-01       4    6    1         0.2213554403E+01      0.5440247483E+01
          0                 4           2             4    7     1      -0.1595413099E-02       4    8    1        -0.9053674504E-01      0.2237877544E+00
          0                 5           1             4    7     1       0.1967209184E-04       4    8    1         0.1147372346E-02      0.3037656096E-02

    ------------------------------------------------
       NWT REQUIRED            5 OUTER ITERATIONS 
       AND A TOTAL OF          9 INNER ITERATIONS.
    ------------------------------------------------

 NO OUTPUT CONTROL FOR STRESS PERIOD   43   TIME STEP   20
 
 SOLVING FOR HEAD 
                                                   Max.-Head-Change                         Max.-Flux-Residual
  Residual-Control   Outer-Iter.   Inner-Iter.     Column Row Layer    Maximum-Head-Change  Column Row Layer    Maximum-Flux-Residual          L2-NORM 
          0                 1           2             4   13     1       0.7733681691E-02       4   13    1         0.4456913848E+00      0.8222432531E+00
          0                 2           2             4    7     1      -0.1758068102E-01       4    6    1        -0.9445981106E+00      0.2331188525E+01
          0                 3           2             4    7     1       0.1773143737E-01       4    6    1         0.9789475836E+00      0.2406351573E+01
          0                 4           2             4    7     1      -0.7021609392E-03       4    6    1        -0.3984666486E-01      0.9792110106E-01
          0                 5           1             4   13     1      -0.5563390929E-04       4   13    1        -0.3468532293E-02      0.6109274621E-02

    ------------------------------------------------
       NWT REQUIRED            5 OUTER ITERATIONS 
       AND A TOTAL OF          9 INNER ITERATIONS.
    ------------------------------------------------

 NO OUTPUT CONTROL FOR STRESS PERIOD   43   TIME STEP   21
 
 SOLVING FOR HEAD 
                                                   Max.-Head-Change                         Max.-Flux-Residual
  Residual-Control   Outer-Iter.   Inner-Iter.     Column Row Layer    Maximum-Head-Change  Column Row Layer    Maximum-Flux-Residual          L2-NORM 
          0                 1           2             4   13     1       0.7418612642E-02       4   13    1         0.4274201930E+00      0.8019890901E+00
          0                 2           2             4    7     1      -0.4852945179E-01       4    6    1        -0.2606777265E+01      0.6420396824E+01
          0                 3           2             4    7     1       0.5038269168E-01       4    6    1         0.2781561413E+01      0.6835933261E+01
          0                 4           2             4    7     1      -0.2004816540E-02       4    8    1        -0.1137708575E+00      0.2825696725E+00
          0                 5           1             7   13     1       0.3233543352E-04       7   13    1         0.1854310036E-02      0.4260624424E-02

    ------------------------------------------------
       NWT REQUIRED            5 OUTER ITERATIONS 
       AND A TOTAL OF          9 INNER ITERATIONS.
    ------------------------------------------------

 NO OUTPUT CONTROL FOR STRESS PERIOD   43   TIME STEP   22
 
 SOLVING FOR HEAD 
                                                   Max.-Head-Change                         Max.-Flux-Residual
  Residual-Control   Outer-Iter.   Inner-Iter.     Column Row Layer    Maximum-Head-Change  Column Row Layer    Maximum-Flux-Residual          L2-NORM 
          0                 1           2             4   13     1       0.7805982297E-02       4   13    1         0.4497769053E+00      0.8473290258E+00
          0                 2           2             4    7     1      -0.2179768234E-01       4    6    1        -0.1171089689E+01      0.2893053816E+01
          0                 3           2             4    7     1       0.2185117028E-01       4    6    1         0.1206390981E+01      0.2965701765E+01
          0                 4           2             4    7     1      -0.3774488079E-03       4    6    1        -0.2142023042E-01      0.5304422876E-01
          0                 5           2             4    7     1       0.1405063811E-03       4    6    1         0.8194904697E-02      0.2028228884E-01
          0                 6           1             4    7     1       0.4075408940E-04       4    6    1         0.2376916518E-02      0.5865849928E-02

    ------------------------------------------------
       NWT REQUIRED            6 OUTER ITERATIONS 
       AND A TOTAL OF         11 INNER ITERATIONS.
    ------------------------------------------------

 NO OUTPUT CONTROL FOR STRESS PERIOD   43   TIME STEP   23
 
 SOLVING FOR HEAD 
                                                   Max.-Head-Change                         Max.-Flux-Residual
  Residual-Control   Outer-Iter.   Inner-Iter.     Column Row Layer    Maximum-Head-Change  Column Row Layer    Maximum-Flux-Residual          L2-NORM 
          0                 1           2             4   13     1       0.7646545461E-02       4   13    1         0.4404966417E+00      0.8231086910E+00
          0                 2           2             4    7     1      -0.4526414531E-01       4    6    1        -0.2431385236E+01      0.5989179885E+01
          0                 3           2             4    7     1       0.4698386745E-01       4    6    1         0.2593917614E+01      0.6374899427E+01
          0                 4           2             4    7     1      -0.1869568654E-02       4    8    1        -0.1060953089E+00      0.2625192708E+00
          0                 5           1             4    7     1       0.2305253224E-04       4    8    1         0.1344544592E-02      0.3650409341E-02

    ------------------------------------------------
       NWT REQUIRED            5 OUTER ITERATIONS 
       AND A TOTAL OF          9 INNER ITERATIONS.
    ------------------------------------------------

 NO OUTPUT CONTROL FOR STRESS PERIOD   43   TIME STEP   24
 
 SOLVING FOR HEAD 
                                                   Max.-Head-Change                         Max.-Flux-Residual
  Residual-Control   Outer-Iter.   Inner-Iter.     Column Row Layer    Maximum-Head-Change  Column Row Layer    Maximum-Flux-Residual          L2-NORM 
          0                 1           2             4   13     1       0.7936659408E-02       4   13    1         0.4572329664E+00      0.8611150004E+00
          0                 2           2             4    7     1      -0.3824906075E-01       4    6    1        -0.2054617418E+01      0.5064946825E+01
          0                 3           2             4    7     1       0.3968190721E-01       4    6    1         0.2190790122E+01      0.5384360944E+01
          0                 4           2             4    7     1      -0.1579006327E-02       4    8    1        -0.8960561831E-01      0.2214924973E+00
          0                 5           1             4    7     1       0.1946979014E-04       4    8    1         0.1135572247E-02      0.3007285959E-02

    ------------------------------------------------
       NWT REQUIRED            5 OUTER ITERATIONS 
       AND A TOTAL OF          9 INNER ITERATIONS.
    ------------------------------------------------

 NO OUTPUT CONTROL FOR STRESS PERIOD   43   TIME STEP   25
 
 SOLVING FOR HEAD 
                                                   Max.-Head-Change                         Max.-Flux-Residual
  Residual-Control   Outer-Iter.   Inner-Iter.     Column Row Layer    Maximum-Head-Change  Column Row Layer    Maximum-Flux-Residual          L2-NORM 
          0                 1           2             4   13     1       0.8152309279E-02       4   13    1         0.4696403324E+00      0.8645934450E+00
          0                 2           2             4    7     1      -0.1877473368E-01       4    6    1        -0.1008704995E+01      0.2489547714E+01
          0                 3           2             4    7     1       0.1901351972E-01       4    6    1         0.1049727512E+01      0.2580297277E+01
          0                 4           2             4    7     1      -0.6986312569E-03       4    6    1        -0.3964630384E-01      0.9756102263E-01
          0                 5           2             4    7     1      -0.3104482302E-02       5    8    1        -0.1761684657E+00      0.4315491470E+00
          0                 6           2             4    7     1       0.2513775142E-02       5    6    1         0.1466119119E+00      0.3620667376E+00
          0                 7           2             4    7     1       0.6807379614E-03       5    6    1         0.3970255553E-01      0.9793470296E-01
          0                 8           2             4    7     1       0.1792778303E-03       5    6    1         0.1045588135E-01      0.2579185388E-01
          0                 9           1             4    7     1       0.4725864351E-04       5    6    1         0.2756201035E-02      0.6798818167E-02

    ------------------------------------------------
       NWT REQUIRED            9 OUTER ITERATIONS 
       AND A TOTAL OF         17 INNER ITERATIONS.
    ------------------------------------------------

 NO OUTPUT CONTROL FOR STRESS PERIOD   43   TIME STEP   26
 
 SOLVING FOR HEAD 
                                                   Max.-Head-Change                         Max.-Flux-Residual
  Residual-Control   Outer-Iter.   Inner-Iter.     Column Row Layer    Maximum-Head-Change  Column Row Layer    Maximum-Flux-Residual          L2-NORM 
          0                 1           2             4   13     1       0.7887344363E-02       4   13    1         0.4542744944E+00      0.8472280022E+00
          0                 2           2             4    7     1      -0.4359184497E-01       4    6    1        -0.2341542672E+01      0.5768503740E+01
          0                 3           2             4    7     1       0.4524333373E-01       4    6    1         0.2497824361E+01      0.6138811467E+01
          0                 4           2             4    7     1      -0.1800308526E-02       4    8    1        -0.1021646637E+00      0.2525612845E+00
          0                 5           1             4    7     1       0.2219852934E-04       4    8    1         0.1294731912E-02      0.3438156951E-02

    ------------------------------------------------
       NWT REQUIRED            5 OUTER ITERATIONS 
       AND A TOTAL OF          9 INNER ITERATIONS.
    ------------------------------------------------

 NO OUTPUT CONTROL FOR STRESS PERIOD   43   TIME STEP   27
 
 SOLVING FOR HEAD 
                                                   Max.-Head-Change                         Max.-Flux-Residual
  Residual-Control   Outer-Iter.   Inner-Iter.     Column Row Layer    Maximum-Head-Change  Column Row Layer    Maximum-Flux-Residual          L2-NORM 
          0                 1           2             4   13     1       0.8116888245E-02       4   13    1         0.4675138629E+00      0.8802268382E+00
          0                 2           2             4    7     1      -0.3631890380E-01       4    6    1        -0.1950926275E+01      0.4810274452E+01
          0                 3           2             4    7     1       0.3767296637E-01       4    6    1         0.2079878563E+01      0.5111823495E+01
          0                 4           2             4    7     1      -0.1499066113E-02       4    8    1        -0.8506891509E-01      0.2102842654E+00
          0                 5           1             4    7     1       0.1848409700E-04       4    8    1         0.1078078928E-02      0.2855420909E-02

    ------------------------------------------------
       NWT REQUIRED            5 OUTER ITERATIONS 
       AND A TOTAL OF          9 INNER ITERATIONS.
    ------------------------------------------------

 NO OUTPUT CONTROL FOR STRESS PERIOD   43   TIME STEP   28
 
 SOLVING FOR HEAD 
                                                   Max.-Head-Change                         Max.-Flux-Residual
  Residual-Control   Outer-Iter.   Inner-Iter.     Column Row Layer    Maximum-Head-Change  Column Row Layer    Maximum-Flux-Residual          L2-NORM 
          0                 1           2             4   13     1       0.8271084026E-02       4   13    1         0.4763742285E+00      0.8793568199E+00
          0                 2           2             4    7     1      -0.3670548092E-01       4    6    1        -0.1971678118E+01      0.4858936993E+01
          0                 3           2             4    7     1       0.3807543716E-01       4    6    1         0.2102097544E+01      0.5166394561E+01
          0                 4           2             4    7     1      -0.1515081308E-02       4    8    1        -0.8597776889E-01      0.2125254490E+00
          0                 5           1             4    7     1       0.1868157019E-04       4    8    1         0.1089596789E-02      0.2883565346E-02

    ------------------------------------------------
       NWT REQUIRED            5 OUTER ITERATIONS 
       AND A TOTAL OF          9 INNER ITERATIONS.
    ------------------------------------------------

 NO OUTPUT CONTROL FOR STRESS PERIOD   43   TIME STEP   29
 
 SOLVING FOR HEAD 
                                                   Max.-Head-Change                         Max.-Flux-Residual
  Residual-Control   Outer-Iter.   Inner-Iter.     Column Row Layer    Maximum-Head-Change  Column Row Layer    Maximum-Flux-Residual          L2-NORM 
          0                 1           2             4   13     1       0.8363026163E-02       4   13    1         0.4816469829E+00      0.8881109598E+00
          0                 2           2             4    7     1      -0.1968564502E-01       4    6    1        -0.1057590356E+01      0.2610184548E+01
          0                 3           2             4    7     1       0.1668726065E-01       4    6    1         0.9212965456E+00      0.2268022499E+01
          0                 4           2             4    7     1       0.1969745284E-02       5    8    1         0.1087467527E+00      0.2683603181E+00
          0                 5           2             4    7     1       0.6538584813E-03       4    6    1         0.3609768756E-01      0.8911400112E-01
          0                 6           2             4    7     1       0.1787256958E-03       5    8    1         0.9866840335E-02      0.2435091598E-01
          0                 7           1             4    7     1       0.5033935364E-04       4    6    1         0.2779037846E-02      0.6859002509E-02

    ------------------------------------------------
       NWT REQUIRED            7 OUTER ITERATIONS 
       AND A TOTAL OF         13 INNER ITERATIONS.
    ------------------------------------------------

 NO OUTPUT CONTROL FOR STRESS PERIOD   43   TIME STEP   30



 STREAM LISTING     PERIOD     43   STEP       30

 LAYER ROW COL. STREAM  RCH.  FLOW INTO     FLOW TO   FLOW OUT OF   OVRLND.     DIRECT     STREAM       STREAM     STREAM     STREAM   STREAMBED  STREAMBED
                SEG.NO.  NO.  STRM. RCH.    AQUIFER    STRM. RCH.    RUNOFF     PRECIP       ET          HEAD       DEPTH      WIDTH   CONDCTNC.   GRADIENT

   1    1    1     1     1    4.3499E+01  3.1564E-01   4.3183E+01  0.000E+00  0.000E+00  0.000E+00  1.09440E+03  1.356E+00  1.610E+01  7.246E-02  1.452E+00
   1    2    2     1     2    4.3183E+01  4.8894E-01   4.2694E+01  0.000E+00  0.000E+00  0.000E+00  1.08941E+03  1.354E+00  1.604E+01  1.123E-01  1.451E+00
   1    3    3     1     3    4.2694E+01  4.1710E-01   4.2277E+01  0.000E+00  0.000E+00  0.000E+00  1.08377E+03  1.350E+00  1.598E+01  9.588E-02  1.450E+00
   1    3    4     1     4    4.2277E+01  3.8418E-01   4.1893E+01  0.000E+00  0.000E+00  0.000E+00  1.07876E+03  1.347E+00  1.592E+01  8.837E-02  1.449E+00
   1    4    5     2     1    3.9893E+01  3.5834E-01   3.9534E+01  0.000E+00  0.000E+00  0.000E+00  1.07353E+03  1.594E+00  1.200E+01  7.800E-02  1.531E+00
   1    5    6     2     2    3.9534E+01  2.7519E-01   3.9259E+01  0.000E+00  0.000E+00  0.000E+00  1.06810E+03  1.586E+00  1.200E+01  6.000E-02  1.529E+00
   1    6    6     2     3    3.9259E+01  2.7479E-01   3.8985E+01  0.000E+00  0.000E+00  0.000E+00  1.06337E+03  1.580E+00  1.200E+01  6.000E-02  1.527E+00
   1    7    6     2     4    3.8985E+01  2.7439E-01   3.8710E+01  0.000E+00  0.000E+00  0.000E+00  1.05865E+03  1.573E+00  1.200E+01  6.000E-02  1.524E+00
   1    8    6     2     5    3.8710E+01  2.7399E-01   3.8436E+01  0.000E+00  0.000E+00  0.000E+00  1.05392E+03  1.566E+00  1.200E+01  6.000E-02  1.522E+00
   1    3    5     3     1    2.0000E+00  2.8252E-01   1.7175E+00  0.000E+00  0.000E+00  0.000E+00  1.07555E+03  1.909E+00  9.636E+00  7.227E-02  1.955E+00
   1    3    6     3     2    1.7175E+00  2.4905E-01   1.4684E+00  0.000E+00  0.000E+00  0.000E+00  1.07264E+03  1.727E+00  8.909E+00  6.682E-02  1.864E+00
   1    3    7     3     3    1.4684E+00  1.9718E-01   1.2712E+00  0.000E+00  0.000E+00  0.000E+00  1.06987E+03  1.555E+00  8.218E+00  5.547E-02  1.777E+00
   1    4    8     3     4    1.2712E+00  2.2567E-01   1.0456E+00  0.000E+00  0.000E+00  0.000E+00  1.06682E+03  1.364E+00  7.455E+00  6.709E-02  1.682E+00
   1    5    8     3     5    1.0456E+00  1.5790E-01   8.8768E-01  0.000E+00  0.000E+00  0.000E+00  1.06362E+03  1.164E+00  6.655E+00  4.991E-02  1.582E+00
   1    6    8     3     6    8.8768E-01  5.5980E-02   8.3170E-01  0.000E+00  0.000E+00  0.000E+00  1.06158E+03  1.036E+00  6.145E+00  1.844E-02  1.518E+00
   1    5   10     4     1    1.0000E+01  9.0919E-02   9.9091E+00  0.000E+00  0.000E+00  0.000E+00  1.07836E+03  6.368E-01  1.000E+01  2.500E-02  1.212E+00
   1    5    9     4     2    9.9091E+00  1.8158E-01   9.7275E+00  0.000E+00  0.000E+00  0.000E+00  1.07154E+03  6.315E-01  1.000E+01  5.000E-02  1.211E+00
   1    6    8     4     3    9.7275E+00  1.2689E-01   9.6006E+00  0.000E+00  0.000E+00  0.000E+00  1.06381E+03  6.256E-01  1.000E+01  3.500E-02  1.209E+00
   1    6    8     5     1    1.0432E+01  2.2686E-01   1.0205E+01  0.000E+00  0.000E+00  0.000E+00  1.05868E+03  6.790E-01  1.542E+01  6.166E-02  1.226E+00
   1    7    7     5     2    1.0205E+01  2.7894E-01   9.9265E+00  0.000E+00  0.000E+00  0.000E+00  1.05417E+03  6.732E-01  1.519E+01  7.594E-02  1.224E+00
   1    8    7     5     3    9.9265E+00  1.9221E-01   9.7343E+00  0.000E+00  0.000E+00  0.000E+00  1.04992E+03  6.676E-01  1.497E+01  5.241E-02  1.223E+00
   1    8    6     5     4    9.7343E+00  1.3577E-01   9.5985E+00  0.000E+00  0.000E+00  0.000E+00  1.04691E+03  6.637E-01  1.482E+01  3.706E-02  1.221E+00
   1    9    6     6     1    3.3752E+01  2.6752E-01   3.3484E+01  0.000E+00  0.000E+00  0.000E+00  1.04419E+03  1.459E+00  1.200E+01  6.000E-02  1.486E+00
   1   10    7     6     2    3.3484E+01  2.6710E-01   3.3217E+01  0.000E+00  0.000E+00  0.000E+00  1.03963E+03  1.452E+00  1.200E+01  6.000E-02  1.484E+00
   1   11    7     6     3    3.3217E+01  2.6669E-01   3.2950E+01  0.000E+00  0.000E+00  0.000E+00  1.03508E+03  1.445E+00  1.200E+01  6.000E-02  1.482E+00
   1   12    7     6     4    3.2950E+01  2.6627E-01   3.2684E+01  0.000E+00  0.000E+00  0.000E+00  1.03053E+03  1.438E+00  1.200E+01  6.000E-02  1.479E+00
   1   13    7     6     5    3.2684E+01  9.0811E-03   3.2675E+01  0.000E+00  0.000E+00  0.000E+00  1.02734E+03  1.434E+00  1.200E+01  2.400E-02  1.261E-01
   1   14    9     7     1    1.5000E+02  1.3525E+00   1.4865E+02  0.000E+00  0.000E+00  0.000E+00  1.03987E+03  2.288E+00  5.529E+01  5.593E-01  8.061E-01
   1   13    8     7     2    1.4865E+02  1.8771E+00   1.4677E+02  0.000E+00  0.000E+00  0.000E+00  1.03478E+03  2.279E+00  5.526E+01  6.148E-01  1.018E+00
   1   13    7     7     3    1.4677E+02  1.5214E+00   1.4525E+02  0.000E+00  0.000E+00  0.000E+00  1.02969E+03  2.270E+00  5.522E+01  5.584E-01  9.082E-01
   1   13    6     8     1    1.7792E+02  9.9583E-01   1.7693E+02  0.000E+00  0.000E+00  0.000E+00  1.02488E+03  3.000E+00  4.350E+01  4.433E-01  7.488E-01
   1   13    5     8     2    1.7693E+02  2.2410E-01   1.7670E+02  0.000E+00  0.000E+00  0.000E+00  1.01862E+03  2.996E+00  4.344E+01  4.427E-01  1.687E-01
   1   13    4     8     3    1.7670E+02 -2.2111E+00   1.7892E+02  0.000E+00  0.000E+00  0.000E+00  1.01238E+03  3.002E+00  4.353E+01  4.436E+00 -1.661E-01
   1   13    3     8     4    1.7892E+02 -3.4831E+00   1.8240E+02  0.000E+00  0.000E+00  0.000E+00  1.00615E+03  3.020E+00  4.379E+01  4.463E+00 -2.602E-01
   1   13    2     8     5    1.8240E+02 -2.4412E+00   1.8484E+02  0.000E+00  0.000E+00  0.000E+00  9.99914E+02  3.039E+00  4.406E+01  4.490E+00 -1.812E-01
   1   13    1     8     6    1.8484E+02 -1.9453E+00   1.8678E+02  0.000E+00  0.000E+00  0.000E+00  9.94927E+02  3.052E+00  4.426E+01  2.706E+00 -2.396E-01
   1    8    6     9     1    1.4283E+01  0.0000E+00   1.4283E+01  0.000E+00  0.000E+00  0.000E+00  1.08156E+03  2.806E+00  4.000E+00  0.000E+00  1.935E+00
   1    8    5     9     2    1.4283E+01  0.0000E+00   1.4283E+01  0.000E+00  0.000E+00  0.000E+00  1.08106E+03  2.806E+00  4.000E+00  0.000E+00  1.935E+00





UNSATURATED ZONE PACKAGE VOLUMETRIC BUDGET FOR  TIME STEP    30 STRESS PERIOD   43
  ------------------------------------------------------------------------------



     CUMULATIVE VOLUMES      L**3       RATES FOR THIS TIME STEP      L**3/T
     ------------------                 ------------------------

           IN:                                      IN:
           ---                                      ---
        INFILTRATION =  2006528992.5544          INFILTRATION =          18.6908

          OUT:                                     OUT:
          ----                                     ----
              UZF ET =  1624965663.7197                UZF ET =          26.6054
        UZF RECHARGE =    79902034.3175          UZF RECHARGE =       0.0000E+00

            IN - OUT =   301661294.5172              IN - OUT =          -7.9146

          STORAGE:                                 STORAGE:
          --------                                 --------
      STORAGE CHANGE =   301662811.2605        STORAGE CHANGE =          -7.9146

 PERCENT DISCREPANCY IS DIFFERENCE BETWEEN IN-OUT MINUS CHANGE IN STORAGE
 DIVIDED BY THE AVERAGE OF IN AND OUT TIMES 100

 PERCENT DISCREPANCY =          -0.00     PERCENT DISCREPANCY =           0.00






1
  VOLUMETRIC BUDGET FOR AGRICULTURAL FIELDS AT  END OF TIME STEP   30, STRESS PERIOD  43
  ------------------------------------------------------------------------------

     CUMULATIVE VOLUMES      L**3       RATES FOR THIS TIME STEP      L**3/T
     ------------------                 ------------------------

           IN:                                      IN:
           ---                                      ---
               AG WELLS  =   514875168.0000                 AG WELLS  =       7.4530E-03
      DIVERSION SEGMENTS =  1005211200.0000        DIVERSION SEGMENTS =          14.2830
           GW IRRIGATION =           0.0000             GW IRRIGATION =           0.0000
           SW IRRIGATION =           0.0000             SW IRRIGATION =           0.0000
        SYSTEM LOSSES GW =           0.0000          SYSTEM LOSSES GW =           0.0000
        SYSTEM LOSSES SW =           0.0000          SYSTEM LOSSES SW =           0.0000

                TOTAL IN =  1520086400.0000                  TOTAL IN =          14.2905

          OUT:                                     OUT:
          ----                                     ----
               AG WELLS  =           0.0000                 AG WELLS  =           0.0000
      DIVERSION SEGMENTS =           0.0000        DIVERSION SEGMENTS =           0.0000
           GW IRRIGATION =   514875168.0000             GW IRRIGATION =       7.4530E-03
           SW IRRIGATION =  1005230144.0000             SW IRRIGATION =          14.2833
        SYSTEM LOSSES GW =           0.0000          SYSTEM LOSSES GW =           0.0000
        SYSTEM LOSSES SW =           0.0000          SYSTEM LOSSES SW =           0.0000

               TOTAL OUT =  1520105344.0000                 TOTAL OUT =          14.2908

                IN - OUT =      -18944.0000                  IN - OUT =      -2.8515E-04

     PERCENT DISCREPANCY =          -0.00         PERCENT DISCREPANCY =          -0.00



1
  VOLUMETRIC BUDGET FOR ENTIRE MODEL AT END OF TIME STEP   30, STRESS PERIOD  43
  ------------------------------------------------------------------------------

     CUMULATIVE VOLUMES      L**3       RATES FOR THIS TIME STEP      L**3/T
     ------------------                 ------------------------

           IN:                                      IN:
           ---                                      ---
             STORAGE     =   878462784.0000               STORAGE     =           0.5854
       CONSTANT HEAD     =           0.0000         CONSTANT HEAD     =           0.0000
     HEAD DEP BOUNDS     =    31624204.0000       HEAD DEP BOUNDS     =           0.2869
      STREAM LEAKAGE     =  1335457152.0000        STREAM LEAKAGE     =          12.5117
        UZF RECHARGE     =    79902024.0000          UZF RECHARGE     =           0.0000
               GW ET     =           0.0000                 GW ET     =           0.0000
     SURFACE LEAKAGE     =           0.0000       SURFACE LEAKAGE     =           0.0000
           AG WELLS      =           0.0000             AG WELLS      =           0.0000

                TOTAL IN =  2325446144.0000                  TOTAL IN =          13.3840

          OUT:                                     OUT:
          ----                                     ----
             STORAGE     =   599904000.0000               STORAGE     =           3.0058
       CONSTANT HEAD     =           0.0000         CONSTANT HEAD     =           0.0000
     HEAD DEP BOUNDS     =    32157634.0000       HEAD DEP BOUNDS     =           0.2906
      STREAM LEAKAGE     =  1175652608.0000        STREAM LEAKAGE     =          10.0807
        UZF RECHARGE     =           0.0000          UZF RECHARGE     =           0.0000
               GW ET     =     2857194.5000                 GW ET     =           0.0000
     SURFACE LEAKAGE     =           0.0000       SURFACE LEAKAGE     =           0.0000
           AG WELLS      =   514875168.0000             AG WELLS      =       7.4530E-03

               TOTAL OUT =  2325446656.0000                 TOTAL OUT =          13.3846

                IN - OUT =        -512.0000                  IN - OUT =      -5.4264E-04

     PERCENT DISCREPANCY =          -0.00         PERCENT DISCREPANCY =          -0.00






         TIME SUMMARY AT END OF TIME STEP   30 IN STRESS PERIOD   43
                    SECONDS     MINUTES      HOURS       DAYS        YEARS
                    -----------------------------------------------------------
   TIME STEP LENGTH  87667.      1461.1      24.352      1.0147     2.77799E-03
 STRESS PERIOD TIME 2.63000E+06  43833.      730.56      30.440     8.33397E-02
         TOTAL TIME 1.10545E+08 1.84242E+06  30707.      1279.5      3.5030    
1
1
                            STRESS PERIOD NO.   44, LENGTH =   2630000.    
                            -----------------------------------------------

                              NUMBER OF TIME STEPS =    30

                               MULTIPLIER FOR DELT =     1.000

                            INITIAL TIME STEP SIZE =   87666.66    

 REUSING NON-PARAMETER GHB CELLS FROM LAST STRESS PERIOD

      2 GHB CELLS

 REUSING STREAM SEGMENT DATA FROM LAST STRESS PERIOD



            AREAL INFILTRATION RATE
 READING ON UNIT   19 WITH FORMAT: (10F4.0)            

            1           2           3           4           5           6           7           8           9          10
 ........................................................................................................................
   1   1.2000E-09   0.000       0.000       0.000       0.000       0.000       0.000       0.000       0.000       0.000    
   2   2.1000E-09  2.0000E-09  8.0000E-10  8.5000E-09   0.000       0.000       0.000       0.000       0.000       0.000    
   3   5.0000E-10  1.1000E-09  8.8000E-09  5.5000E-09   0.000       0.000       0.000       0.000       0.000       0.000    
   4   8.5000E-09  1.1000E-09  1.1000E-09  1.1000E-09  2.0000E-09   0.000       0.000       0.000       0.000       0.000    
   5   8.5000E-09  1.1000E-09  1.1000E-09  1.1000E-09  1.1000E-09   0.000       0.000       0.000       0.000       0.000    
   6   8.5000E-09  5.2000E-09  2.1000E-09  1.1000E-09  1.5000E-09   0.000       0.000       0.000       0.000       0.000    
   7   8.5000E-09  5.2000E-09  2.1000E-09  1.2000E-09  2.0000E-09   0.000       0.000       0.000       0.000       0.000    
   8   5.0000E-10  5.2000E-09  2.1000E-09  1.2000E-09  5.0000E-09   0.000       0.000       0.000       0.000       0.000    
   9   5.0000E-10  5.2000E-09  2.1000E-09  1.2000E-09  5.0000E-09   0.000       0.000       0.000       0.000       0.000    
  10   5.0000E-10  5.2000E-09  2.1000E-09  1.2000E-09  5.8000E-09   0.000       0.000       0.000       0.000       0.000    
  11   1.0000E-10  1.1000E-09  1.1000E-09  1.2000E-09  5.0000E-09   0.000       0.000       0.000       0.000       0.000    
  12   1.1000E-09  1.1000E-09  1.1000E-09  1.1000E-09  2.0000E-09   0.000       0.000       0.000       0.000       0.000    
  13   1.1000E-09  2.2000E-09  2.2000E-09  2.1000E-09  1.0000E-09   0.000       0.000       0.000       0.000       0.000    
  14   2.0000E-10  5.5000E-09  5.5000E-09  5.2000E-09  1.0000E-09   0.000       0.000       0.000       0.000       0.000    
  15    0.000      8.8000E-09  8.8000E-09   0.000       0.000       0.000       0.000       0.000       0.000       0.000    

                  ET RATE =  4.000000E-07

 USING ET EXTINCTION DEPTH FROM PREVIOUS STRESS PERIOD. CURRENT PERIOD IS:      44

 USING EXTINCTION WATER CONTENT FROM PREVIOUS STRESS PERIOD. CURRENT PERIOD IS:      44

 USING AIR ENTRY PRESSURE FROM PREVIOUS STRESS PERIOD. CURRENT PERIOD IS:      44

 USING ROOT PRESSURE HEAD FROM PREVIOUS STRESS PERIOD. CURRENT PERIOD IS:      44

 USING ROOT ACTIVITY FROM PREVIOUS STRESS PERIOD. CURRENT PERIOD IS:      44

 PROCESSING AG STRESS PERIOD DATA

 READING AG STRESS PERIOD DATA

 READING IRRIGATION SEGMENT

 READING IRRIGATION WELL

 READING SUPPLEMENTAL WELL

 END PROCESSING AG STRESS PERIOD DATA OPTIONS
 
 SOLVING FOR HEAD 
                                                   Max.-Head-Change                         Max.-Flux-Residual
  Residual-Control   Outer-Iter.   Inner-Iter.     Column Row Layer    Maximum-Head-Change  Column Row Layer    Maximum-Flux-Residual          L2-NORM 
          0                 1           2             4   13     1       0.8096854631E-02       4   13    1         0.4662184744E+00      0.8701477375E+00
          0                 2           2             4    7     1      -0.1851194917E+00       4    6    1        -0.9942494825E+01      0.2440319141E+02
          0                 3           2             4    7     1       0.1260472636E-01       5    6    1         0.6959368269E+00      0.1708928479E+01
          0                 4           2             4    7     1      -0.5015564808E-03       5    6    1        -0.2846390213E-01      0.7004998673E-01
          0                 5           1             4    7     1       0.6184404728E-05       5    6    1         0.3607253116E-03      0.9172255479E-03

    ------------------------------------------------
       NWT REQUIRED            5 OUTER ITERATIONS 
       AND A TOTAL OF          9 INNER ITERATIONS.
    ------------------------------------------------

 NO OUTPUT CONTROL FOR STRESS PERIOD   44   TIME STEP    1
 
 SOLVING FOR HEAD 
                                                   Max.-Head-Change                         Max.-Flux-Residual
  Residual-Control   Outer-Iter.   Inner-Iter.     Column Row Layer    Maximum-Head-Change  Column Row Layer    Maximum-Flux-Residual          L2-NORM 
          0                 1           2             4   13     1       0.8688575680E-02       4   13    1         0.5004025221E+00      0.1130239706E+01
          0                 2           2             4    7     1      -0.1006555624E+00       5    8    1        -0.5428063306E+01      0.1334157832E+02
          0                 3           2             4    7     1       0.2518035177E-01       5    6    1         0.1393153804E+01      0.3413664981E+01
          0                 4           2             4    7     1      -0.1001953725E-02       5    6    1        -0.5696202849E-01      0.1398716042E+00
          0                 5           1             4    7     1       0.1235451771E-04       4    8    1         0.7210074655E-03      0.1820147200E-02

    ------------------------------------------------
       NWT REQUIRED            5 OUTER ITERATIONS 
       AND A TOTAL OF          9 INNER ITERATIONS.
    ------------------------------------------------

 NO OUTPUT CONTROL FOR STRESS PERIOD   44   TIME STEP    2
 
 SOLVING FOR HEAD 
                                                   Max.-Head-Change                         Max.-Flux-Residual
  Residual-Control   Outer-Iter.   Inner-Iter.     Column Row Layer    Maximum-Head-Change  Column Row Layer    Maximum-Flux-Residual          L2-NORM 
          0                 1           2             4   13     1       0.9281542788E-02       4   13    1         0.5346390383E+00      0.1319200970E+01
          0                 2           2             4    7     1      -0.2494246919E+00       5    8    1        -0.1341880274E+02      0.3287583010E+02
          0                 3           2             4    7     1       0.1698360770E-01       5    6    1         0.9391184306E+00      0.2300279664E+01
          0                 4           2             4    7     1      -0.6757954595E-03       5    6    1        -0.3839487558E-01      0.9415745222E-01
          0                 5           1             4    7     1       0.8332848383E-05       4    6    1         0.4856292949E-03      0.1213541140E-02

    ------------------------------------------------
       NWT REQUIRED            5 OUTER ITERATIONS 
       AND A TOTAL OF          9 INNER ITERATIONS.
    ------------------------------------------------

 NO OUTPUT CONTROL FOR STRESS PERIOD   44   TIME STEP    3
 
 SOLVING FOR HEAD 
                                                   Max.-Head-Change                         Max.-Flux-Residual
  Residual-Control   Outer-Iter.   Inner-Iter.     Column Row Layer    Maximum-Head-Change  Column Row Layer    Maximum-Flux-Residual          L2-NORM 
          0                 1           2             5    8     1       0.1511846418E-01       5    8    1         0.8283773968E+00      0.1966571713E+01
          0                 2           2             4    7     1      -0.9397198864E-01       5    8    1        -0.5103415438E+01      0.1250479703E+02
          0                 3           2             4    7     1       0.3150837004E-01       5    8    1         0.1742626159E+01      0.4271172573E+01
          0                 4           2             4    7     1      -0.1253753626E-02       5    8    1        -0.7125425118E-01      0.1751625778E+00
          0                 5           1             4    7     1       0.1545931603E-04       5    6    1         0.9015758819E-03      0.2302768570E-02

    ------------------------------------------------
       NWT REQUIRED            5 OUTER ITERATIONS 
       AND A TOTAL OF          9 INNER ITERATIONS.
    ------------------------------------------------

 NO OUTPUT CONTROL FOR STRESS PERIOD   44   TIME STEP    4
 
 SOLVING FOR HEAD 
                                                   Max.-Head-Change                         Max.-Flux-Residual
  Residual-Control   Outer-Iter.   Inner-Iter.     Column Row Layer    Maximum-Head-Change  Column Row Layer    Maximum-Flux-Residual          L2-NORM 
          0                 1           2             5    8     1       0.1626358760E-01       5    8    1         0.8908767093E+00      0.2114240035E+01
          0                 2           2             4    7     1      -0.2497840347E+00       5    8    1        -0.1347008999E+02      0.3296866346E+02
          0                 3           2             4    7     1       0.1700900126E-01       5    6    1         0.9426651445E+00      0.2308484520E+01
          0                 4           2             4    7     1      -0.6768058270E-03       5    6    1        -0.3854154152E-01      0.9448638944E-01
          0                 5           1             4    7     1       0.8345306673E-05       5    6    1         0.4875162758E-03      0.1215913789E-02

    ------------------------------------------------
       NWT REQUIRED            5 OUTER ITERATIONS 
       AND A TOTAL OF          9 INNER ITERATIONS.
    ------------------------------------------------

 NO OUTPUT CONTROL FOR STRESS PERIOD   44   TIME STEP    5
 
 SOLVING FOR HEAD 
                                                   Max.-Head-Change                         Max.-Flux-Residual
  Residual-Control   Outer-Iter.   Inner-Iter.     Column Row Layer    Maximum-Head-Change  Column Row Layer    Maximum-Flux-Residual          L2-NORM 
          0                 1           2             5    8     1       0.2247428172E-01       5    8    1         0.1232427948E+01      0.2769719798E+01
          0                 2           2             4    7     1      -0.9416382038E-01       5    8    1        -0.5142969250E+01      0.1257125732E+02
          0                 3           2             4    7     1       0.2433116778E-01       5    8    1         0.1348672265E+01      0.3300987453E+01
          0                 4           2             4    7     1      -0.9681635011E-03       5    8    1        -0.5514728960E-01      0.1352704880E+00
          0                 5           1             4    7     1       0.1193786979E-04       5    8    1         0.6978827046E-03      0.1761541575E-02

    ------------------------------------------------
       NWT REQUIRED            5 OUTER ITERATIONS 
       AND A TOTAL OF          9 INNER ITERATIONS.
    ------------------------------------------------

 NO OUTPUT CONTROL FOR STRESS PERIOD   44   TIME STEP    6
 
 SOLVING FOR HEAD 
                                                   Max.-Head-Change                         Max.-Flux-Residual
  Residual-Control   Outer-Iter.   Inner-Iter.     Column Row Layer    Maximum-Head-Change  Column Row Layer    Maximum-Flux-Residual          L2-NORM 
          0                 1           2             5    8     1       0.2343540904E-01       5    8    1         0.1284532155E+01      0.2897840104E+01
          0                 2           2             4    7     1      -0.2590904236E+00       5    8    1        -0.1399709966E+02      0.3422471806E+02
          0                 3           2             4    7     1       0.1764271011E-01       5    6    1         0.9795220177E+00      0.2396388950E+01
          0                 4           2             4    7     1      -0.7020217981E-03       5    6    1        -0.4004988228E-01      0.9807901852E-01
          0                 5           1             4    7     1       0.8656229949E-05       5    6    1         0.5066918143E-03      0.1260314363E-02

    ------------------------------------------------
       NWT REQUIRED            5 OUTER ITERATIONS 
       AND A TOTAL OF          9 INNER ITERATIONS.
    ------------------------------------------------

 NO OUTPUT CONTROL FOR STRESS PERIOD   44   TIME STEP    7
 
 SOLVING FOR HEAD 
                                                   Max.-Head-Change                         Max.-Flux-Residual
  Residual-Control   Outer-Iter.   Inner-Iter.     Column Row Layer    Maximum-Head-Change  Column Row Layer    Maximum-Flux-Residual          L2-NORM 
          0                 1           2             5    8     1       0.2952377612E-01       5    8    1         0.1619030204E+01      0.3608377973E+01
          0                 2           2             4    7     1      -0.9439789376E-01       5    8    1        -0.5181630124E+01      0.1264039439E+02
          0                 3           2             4    7     1       0.2271547696E-01       5    8    1         0.1261361789E+01      0.3084643088E+01
          0                 4           2             4    7     1      -0.9038731444E-03       5    8    1        -0.5157875317E-01      0.1263806051E+00
          0                 5           1             4    7     1       0.1114514270E-04       5    8    1         0.6528367521E-03      0.1641827159E-02

    ------------------------------------------------
       NWT REQUIRED            5 OUTER ITERATIONS 
       AND A TOTAL OF          9 INNER ITERATIONS.
    ------------------------------------------------

 NO OUTPUT CONTROL FOR STRESS PERIOD   44   TIME STEP    8
 
 SOLVING FOR HEAD 
                                                   Max.-Head-Change                         Max.-Flux-Residual
  Residual-Control   Outer-Iter.   Inner-Iter.     Column Row Layer    Maximum-Head-Change  Column Row Layer    Maximum-Flux-Residual          L2-NORM 
          0                 1           2             5    8     1       0.3016741656E-01       5    8    1         0.1653406341E+01      0.3711412525E+01
          0                 2           2             4    7     1      -0.2593341141E+00       5    8    1        -0.1403398817E+02      0.3429156422E+02
          0                 3           2             4    7     1       0.1765931919E-01       5    8    1         0.9843367784E+00      0.2401965874E+01
          0                 4           2             4    7     1      -0.7026826584E-03       5    8    1        -0.4024755086E-01      0.9830350173E-01
          0                 5           1             4    7     1       0.8664379029E-05       5    8    1         0.5092474908E-03      0.1262102924E-02

    ------------------------------------------------
       NWT REQUIRED            5 OUTER ITERATIONS 
       AND A TOTAL OF          9 INNER ITERATIONS.
    ------------------------------------------------

 NO OUTPUT CONTROL FOR STRESS PERIOD   44   TIME STEP    9
 
 SOLVING FOR HEAD 
                                                   Max.-Head-Change                         Max.-Flux-Residual
  Residual-Control   Outer-Iter.   Inner-Iter.     Column Row Layer    Maximum-Head-Change  Column Row Layer    Maximum-Flux-Residual          L2-NORM 
          0                 1           2             5    8     1       0.3588137642E-01       5    8    1         0.1969820958E+01      0.4395299065E+01
          0                 2           2             4    8     1      -0.9478221853E-01       5    8    1        -0.5214886947E+01      0.1270511526E+02
          0                 3           2             4    7     1       0.2273259969E-01       5    8    1         0.1267571253E+01      0.3090678884E+01
          0                 4           2             4    7     1      -0.9045544048E-03       5    8    1        -0.5183362105E-01      0.1266252434E+00
          0                 5           1             4    7     1       0.1115354314E-04       5    8    1         0.6561947544E-03      0.1644298496E-02

    ------------------------------------------------
       NWT REQUIRED            5 OUTER ITERATIONS 
       AND A TOTAL OF          9 INNER ITERATIONS.
    ------------------------------------------------

 NO OUTPUT CONTROL FOR STRESS PERIOD   44   TIME STEP   10
 
 SOLVING FOR HEAD 
                                                   Max.-Head-Change                         Max.-Flux-Residual
  Residual-Control   Outer-Iter.   Inner-Iter.     Column Row Layer    Maximum-Head-Change  Column Row Layer    Maximum-Flux-Residual          L2-NORM 
          0                 1           2             5    8     1       0.3622560024E-01       5    8    1         0.1987566681E+01      0.4465290056E+01
          0                 2           2             4    7     1      -0.2595912276E+00       5    8    1        -0.1406691352E+02      0.3435405208E+02
          0                 3           2             4    7     1       0.1767694419E-01       5    8    1         0.9992501000E+00      0.2411604203E+01
          0                 4           2             4    7     1      -0.7033838138E-03       5    8    1        -0.4086441394E-01      0.9869708103E-01
          0                 5           1             4    7     1       0.8673024782E-05       5    8    1         0.5175342894E-03      0.1266075537E-02

    ------------------------------------------------
       NWT REQUIRED            5 OUTER ITERATIONS 
       AND A TOTAL OF          9 INNER ITERATIONS.
    ------------------------------------------------

 NO OUTPUT CONTROL FOR STRESS PERIOD   44   TIME STEP   11
 
 SOLVING FOR HEAD 
                                                   Max.-Head-Change                         Max.-Flux-Residual
  Residual-Control   Outer-Iter.   Inner-Iter.     Column Row Layer    Maximum-Head-Change  Column Row Layer    Maximum-Flux-Residual          L2-NORM 
          0                 1           2             5    8     1       0.4184134951E-01       5    8    1         0.2296301611E+01      0.5127092061E+01
          0                 2           2             5    6     1      -0.9531261222E-01       5    8    1        -0.5249352834E+01      0.1276770026E+02
          0                 3           2             4    7     1       0.2275048009E-01       5    8    1         0.1266128293E+01      0.3093382103E+01
          0                 4           2             4    7     1      -0.9052656754E-03       5    8    1        -0.5177377274E-01      0.1267341941E+00
          0                 5           1             4    7     1       0.1116231368E-04       5    8    1         0.6553800936E-03      0.1645479410E-02

    ------------------------------------------------
       NWT REQUIRED            5 OUTER ITERATIONS 
       AND A TOTAL OF          9 INNER ITERATIONS.
    ------------------------------------------------

 NO OUTPUT CONTROL FOR STRESS PERIOD   44   TIME STEP   12
 
 SOLVING FOR HEAD 
                                                   Max.-Head-Change                         Max.-Flux-Residual
  Residual-Control   Outer-Iter.   Inner-Iter.     Column Row Layer    Maximum-Head-Change  Column Row Layer    Maximum-Flux-Residual          L2-NORM 
          0                 1           2             5    8     1       0.4188463389E-01       5    8    1         0.2297285028E+01      0.5166327923E+01
          0                 2           2             4    7     1      -0.2598585047E+00       5    8    1        -0.1409837152E+02      0.3441340321E+02
          0                 3           2             4    7     1       0.1769505481E-01       5    8    1         0.9867574835E+00      0.2409656192E+01
          0                 4           2             4    7     1      -0.7041044414E-03       5    8    1        -0.4034780150E-01      0.9861343694E-01
          0                 5           1             4    7     1       0.8681910471E-05       5    8    1         0.5106026028E-03      0.1264594379E-02

    ------------------------------------------------
       NWT REQUIRED            5 OUTER ITERATIONS 
       AND A TOTAL OF          9 INNER ITERATIONS.
    ------------------------------------------------

 NO OUTPUT CONTROL FOR STRESS PERIOD   44   TIME STEP   13
 
 SOLVING FOR HEAD 
                                                   Max.-Head-Change                         Max.-Flux-Residual
  Residual-Control   Outer-Iter.   Inner-Iter.     Column Row Layer    Maximum-Head-Change  Column Row Layer    Maximum-Flux-Residual          L2-NORM 
          0                 1           2             5    8     1       0.4721915358E-01       5    8    1         0.2590366142E+01      0.5801169157E+01
          0                 2           2             5    6     1      -0.9582120076E-01       5    8    1        -0.5278758780E+01      0.1282569721E+02
          0                 3           2             4    7     1       0.2276899177E-01       5    8    1         0.1268186717E+01      0.3097354526E+01
          0                 4           2             4    7     1      -0.9060022534E-03       5    8    1        -0.5185869685E-01      0.1268958866E+00
          0                 5           1             4    7     1       0.1117139606E-04       5    8    1         0.6565062354E-03      0.1647117719E-02

    ------------------------------------------------
       NWT REQUIRED            5 OUTER ITERATIONS 
       AND A TOTAL OF          9 INNER ITERATIONS.
    ------------------------------------------------

 NO OUTPUT CONTROL FOR STRESS PERIOD   44   TIME STEP   14
 
 SOLVING FOR HEAD 
                                                   Max.-Head-Change                         Max.-Flux-Residual
  Residual-Control   Outer-Iter.   Inner-Iter.     Column Row Layer    Maximum-Head-Change  Column Row Layer    Maximum-Flux-Residual          L2-NORM 
          0                 1           2             5    8     1       0.4700004102E-01       5    8    1         0.2576754531E+01      0.5813275563E+01
          0                 2           2             4    7     1      -0.2601334471E+00       5    8    1        -0.1412631799E+02      0.3446893780E+02
          0                 3           2             4    7     1       0.1771378017E-01       5    8    1         0.9887238564E+00      0.2413535103E+01
          0                 4           2             4    7     1      -0.7048495264E-03       5    8    1        -0.4042920562E-01      0.9877054488E-01
          0                 5           1             4    7     1       0.8691098039E-05       5    8    1         0.5117007804E-03      0.1265964124E-02

    ------------------------------------------------
       NWT REQUIRED            5 OUTER ITERATIONS 
       AND A TOTAL OF          9 INNER ITERATIONS.
    ------------------------------------------------

 NO OUTPUT CONTROL FOR STRESS PERIOD   44   TIME STEP   15
 
 SOLVING FOR HEAD 
                                                   Max.-Head-Change                         Max.-Flux-Residual
  Residual-Control   Outer-Iter.   Inner-Iter.     Column Row Layer    Maximum-Head-Change  Column Row Layer    Maximum-Flux-Residual          L2-NORM 
          0                 1           2             5    8     1       0.5208901848E-01       5    8    1         0.2856187019E+01      0.6423317932E+01
          0                 2           2             5    6     1      -0.9628494585E-01       5    8    1        -0.5305340353E+01      0.1288017828E+02
          0                 3           2             4    7     1       0.2278793564E-01       5    8    1         0.1270047440E+01      0.3101088620E+01
          0                 4           2             4    7     1      -0.9067560326E-03       5    8    1        -0.5193543996E-01      0.1270480717E+00
          0                 5           1             4    7     1       0.1118069083E-04       5    8    1         0.6575222296E-03      0.1648827141E-02

    ------------------------------------------------
       NWT REQUIRED            5 OUTER ITERATIONS 
       AND A TOTAL OF          9 INNER ITERATIONS.
    ------------------------------------------------

 NO OUTPUT CONTROL FOR STRESS PERIOD   44   TIME STEP   16
 
 SOLVING FOR HEAD 
                                                   Max.-Head-Change                         Max.-Flux-Residual
  Residual-Control   Outer-Iter.   Inner-Iter.     Column Row Layer    Maximum-Head-Change  Column Row Layer    Maximum-Flux-Residual          L2-NORM 
          0                 1           2             5    8     1       0.5164018442E-01       5    8    1         0.2829815998E+01      0.6411451095E+01
          0                 2           2             4    7     1      -0.2604135894E+00       5    8    1        -0.1415162365E+02      0.3452115818E+02
          0                 3           2             4    7     1       0.1773285899E-01       5    8    1         0.9905040845E+00      0.2417184091E+01
          0                 4           2             4    7     1      -0.7056086784E-03       5    8    1        -0.4050287041E-01      0.9891878542E-01
          0                 5           1             4    7     1       0.8700458447E-05       5    8    1         0.5126923065E-03      0.1267362184E-02

    ------------------------------------------------
       NWT REQUIRED            5 OUTER ITERATIONS 
       AND A TOTAL OF          9 INNER ITERATIONS.
    ------------------------------------------------

 NO OUTPUT CONTROL FOR STRESS PERIOD   44   TIME STEP   17
 
 SOLVING FOR HEAD 
                                                   Max.-Head-Change                         Max.-Flux-Residual
  Residual-Control   Outer-Iter.   Inner-Iter.     Column Row Layer    Maximum-Head-Change  Column Row Layer    Maximum-Flux-Residual          L2-NORM 
          0                 1           2             5    8     1       0.5651420894E-01       5    8    1         0.3097316659E+01      0.6998900934E+01
          0                 2           2             5    6     1      -0.9670898768E-01       5    8    1        -0.5329452803E+01      0.1293142865E+02
          0                 3           2             4    7     1       0.2280716078E-01       5    8    1         0.1271735327E+01      0.3104604235E+01
          0                 4           2             4    7     1      -0.9075210073E-03       5    8    1        -0.5200503221E-01      0.1271913784E+00
          0                 5           1             4    7     1       0.1119012293E-04       5    8    1         0.6584420712E-03      0.1650218444E-02

    ------------------------------------------------
       NWT REQUIRED            5 OUTER ITERATIONS 
       AND A TOTAL OF          9 INNER ITERATIONS.
    ------------------------------------------------

 NO OUTPUT CONTROL FOR STRESS PERIOD   44   TIME STEP   18
 
 SOLVING FOR HEAD 
                                                   Max.-Head-Change                         Max.-Flux-Residual
  Residual-Control   Outer-Iter.   Inner-Iter.     Column Row Layer    Maximum-Head-Change  Column Row Layer    Maximum-Flux-Residual          L2-NORM 
          0                 1           2             5    8     1       0.5586394913E-01       5    8    1         0.3059773354E+01      0.6965812858E+01
          0                 2           2             4    7     1      -0.2606968537E+00       5    8    1        -0.1417461890E+02      0.3457033849E+02
          0                 3           2             4    7     1       0.1775214987E-01       5    8    1         0.9921214702E+00      0.2420621452E+01
          0                 4           2             4    7     1      -0.7063762717E-03       5    8    1        -0.4056976614E-01      0.9905858749E-01
          0                 5           1             4    7     1       0.8709923253E-05       5    8    1         0.5135906549E-03      0.1268753685E-02

    ------------------------------------------------
       NWT REQUIRED            5 OUTER ITERATIONS 
       AND A TOTAL OF          9 INNER ITERATIONS.
    ------------------------------------------------

 NO OUTPUT CONTROL FOR STRESS PERIOD   44   TIME STEP   19
 
 SOLVING FOR HEAD 
                                                   Max.-Head-Change                         Max.-Flux-Residual
  Residual-Control   Outer-Iter.   Inner-Iter.     Column Row Layer    Maximum-Head-Change  Column Row Layer    Maximum-Flux-Residual          L2-NORM 
          0                 1           2             5    8     1       0.6054888640E-01       5    8    1         0.3316792529E+01      0.7532733324E+01
          0                 2           2             5    6     1      -0.9709783529E-01       5    8    1        -0.5351399882E+01      0.1297970767E+02
          0                 3           2             4    7     1       0.2282653694E-01       5    8    1         0.1273271641E+01      0.3107918878E+01
          0                 4           2             4    7     1      -0.9082919945E-03       5    8    1        -0.5206835438E-01      0.1273264057E+00
          0                 5           1             4    7     1       0.1119962985E-04       5    8    1         0.6592776358E-03      0.1651432029E-02

    ------------------------------------------------
       NWT REQUIRED            5 OUTER ITERATIONS 
       AND A TOTAL OF          9 INNER ITERATIONS.
    ------------------------------------------------

 NO OUTPUT CONTROL FOR STRESS PERIOD   44   TIME STEP   20
 
 SOLVING FOR HEAD 
                                                   Max.-Head-Change                         Max.-Flux-Residual
  Residual-Control   Outer-Iter.   Inner-Iter.     Column Row Layer    Maximum-Head-Change  Column Row Layer    Maximum-Flux-Residual          L2-NORM 
          0                 1           2             5    8     1       0.5972143598E-01       5    8    1         0.3269434898E+01      0.7480829630E+01
          0                 2           2             4    7     1      -0.2609814745E+00       5    8    1        -0.1419558457E+02      0.3461672586E+02
          0                 3           2             4    7     1       0.1777153262E-01       5    8    1         0.9935958210E+00      0.2423864381E+01
          0                 4           2             4    7     1      -0.7071475229E-03       5    8    1        -0.4063071757E-01      0.9919072236E-01
          0                 5           1             4    7     1       0.8719432864E-05       5    8    1         0.5144073093E-03      0.1270067061E-02

    ------------------------------------------------
       NWT REQUIRED            5 OUTER ITERATIONS 
       AND A TOTAL OF          9 INNER ITERATIONS.
    ------------------------------------------------

 NO OUTPUT CONTROL FOR STRESS PERIOD   44   TIME STEP   21
 
 SOLVING FOR HEAD 
                                                   Max.-Head-Change                         Max.-Flux-Residual
  Residual-Control   Outer-Iter.   Inner-Iter.     Column Row Layer    Maximum-Head-Change  Column Row Layer    Maximum-Flux-Residual          L2-NORM 
          0                 1           2             5    8     1       0.6423998211E-01       5    8    1         0.3517243830E+01      0.8029150831E+01
          0                 2           2             5    6     1      -0.9745540759E-01       5    8    1        -0.5371444516E+01      0.1302525309E+02
          0                 3           2             4    7     1       0.2284595291E-01       5    8    1         0.1274674785E+01      0.3111048898E+01
          0                 4           2             4    7     1      -0.9090645685E-03       5    8    1        -0.5212616856E-01      0.1274543559E+00
          0                 5           1             4    7     1       0.1120915582E-04       5    8    1         0.6600392339E-03      0.1653314903E-02

    ------------------------------------------------
       NWT REQUIRED            5 OUTER ITERATIONS 
       AND A TOTAL OF          9 INNER ITERATIONS.
    ------------------------------------------------

 NO OUTPUT CONTROL FOR STRESS PERIOD   44   TIME STEP   22
 
 SOLVING FOR HEAD 
                                                   Max.-Head-Change                         Max.-Flux-Residual
  Residual-Control   Outer-Iter.   Inner-Iter.     Column Row Layer    Maximum-Head-Change  Column Row Layer    Maximum-Flux-Residual          L2-NORM 
          0                 1           2             5    8     1       0.6325624641E-01       5    8    1         0.3461241923E+01      0.7960565386E+01
          0                 2           2             4    7     1      -0.2612659484E+00       5    8    1        -0.1421476480E+02      0.3466054149E+02
          0                 3           2             4    7     1       0.1779090496E-01       5    8    1         0.9949443524E+00      0.2426927432E+01
          0                 4           2             4    7     1      -0.7079183623E-03       5    8    1        -0.4068644128E-01      0.9931555445E-01
          0                 5           1             4    7     1       0.8728937659E-05       5    8    1         0.5151521482E-03      0.1271319454E-02

    ------------------------------------------------
       NWT REQUIRED            5 OUTER ITERATIONS 
       AND A TOTAL OF          9 INNER ITERATIONS.
    ------------------------------------------------

 NO OUTPUT CONTROL FOR STRESS PERIOD   44   TIME STEP   23
 
 SOLVING FOR HEAD 
                                                   Max.-Head-Change                         Max.-Flux-Residual
  Residual-Control   Outer-Iter.   Inner-Iter.     Column Row Layer    Maximum-Head-Change  Column Row Layer    Maximum-Flux-Residual          L2-NORM 
          0                 1           2             5    8     1       0.6762777444E-01       5    8    1         0.3700923483E+01      0.8491918726E+01
          0                 2           2             5    6     1      -0.9778510637E-01       5    8    1        -0.5389811999E+01      0.1306827856E+02
          0                 3           2             4    7     1       0.2286531273E-01       5    8    1         0.1275960530E+01      0.3114008163E+01
          0                 4           2             4    7     1      -0.9098349109E-03       5    8    1        -0.5217912771E-01      0.1275751996E+00
          0                 5           1             4    7     1       0.1121865467E-04       5    8    1         0.6607356727E-03      0.1655067178E-02

    ------------------------------------------------
       NWT REQUIRED            5 OUTER ITERATIONS 
       AND A TOTAL OF          9 INNER ITERATIONS.
    ------------------------------------------------

 NO OUTPUT CONTROL FOR STRESS PERIOD   44   TIME STEP   24
 
 SOLVING FOR HEAD 
                                                   Max.-Head-Change                         Max.-Flux-Residual
  Residual-Control   Outer-Iter.   Inner-Iter.     Column Row Layer    Maximum-Head-Change  Column Row Layer    Maximum-Flux-Residual          L2-NORM 
          0                 1           2             5    8     1       0.6650573817E-01       5    8    1         0.3637282885E+01      0.8408408484E+01
          0                 2           2             4    7     1      -0.2615489966E+00       5    8    1        -0.1423236844E+02      0.3470198624E+02
          0                 3           2             4    7     1       0.1781017986E-01       5    8    1         0.9961817905E+00      0.2429824419E+01
          0                 4           2             4    7     1      -0.7086853269E-03       5    8    1        -0.4073754999E-01      0.9943367435E-01
          0                 5           1             4    7     1       0.8738394960E-05       5    8    1         0.5158336612E-03      0.1272613569E-02

    ------------------------------------------------
       NWT REQUIRED            5 OUTER ITERATIONS 
       AND A TOTAL OF          9 INNER ITERATIONS.
    ------------------------------------------------

 NO OUTPUT CONTROL FOR STRESS PERIOD   44   TIME STEP   25
 
 SOLVING FOR HEAD 
                                                   Max.-Head-Change                         Max.-Flux-Residual
  Residual-Control   Outer-Iter.   Inner-Iter.     Column Row Layer    Maximum-Head-Change  Column Row Layer    Maximum-Flux-Residual          L2-NORM 
          0                 1           2             5    8     1       0.7074705392E-01       5    8    1         0.3869776378E+01      0.8924298922E+01
          0                 2           2             5    6     1      -0.9808991620E-01       5    8    1        -0.5406696822E+01      0.1310897630E+02
          0                 3           2             4    7     1       0.2288453741E-01       5    8    1         0.1277142490E+01      0.3116810924E+01
          0                 4           2             4    7     1      -0.9105998777E-03       5    8    1        -0.5222779556E-01      0.1276896225E+00
          0                 5           1             4    7     1       0.1122808700E-04       5    8    1         0.6613745868E-03      0.1656129183E-02

    ------------------------------------------------
       NWT REQUIRED            5 OUTER ITERATIONS 
       AND A TOTAL OF          9 INNER ITERATIONS.
    ------------------------------------------------

 NO OUTPUT CONTROL FOR STRESS PERIOD   44   TIME STEP   26
 
 SOLVING FOR HEAD 
                                                   Max.-Head-Change                         Max.-Flux-Residual
  Residual-Control   Outer-Iter.   Inner-Iter.     Column Row Layer    Maximum-Head-Change  Column Row Layer    Maximum-Flux-Residual          L2-NORM 
          0                 1           2             5    8     1       0.6950235132E-01       5    8    1         0.3799369563E+01      0.8827433770E+01
          0                 2           2             4    7     1      -0.2618295217E+00       5    8    1        -0.1424857667E+02      0.3474124125E+02
          0                 3           2             4    7     1       0.1782928263E-01       5    8    1         0.9973209100E+00      0.2432567136E+01
          0                 4           2             4    7     1      -0.7094454436E-03       5    8    1        -0.4078457527E-01      0.9954551025E-01
          0                 5           1             4    7     1       0.8747767129E-05       5    8    1         0.5164591835E-03      0.1273841087E-02

    ------------------------------------------------
       NWT REQUIRED            5 OUTER ITERATIONS 
       AND A TOTAL OF          9 INNER ITERATIONS.
    ------------------------------------------------

 NO OUTPUT CONTROL FOR STRESS PERIOD   44   TIME STEP   27
 
 SOLVING FOR HEAD 
                                                   Max.-Head-Change                         Max.-Flux-Residual
  Residual-Control   Outer-Iter.   Inner-Iter.     Column Row Layer    Maximum-Head-Change  Column Row Layer    Maximum-Flux-Residual          L2-NORM 
          0                 1           2             5    8     1       0.7362782162E-01       5    8    1         0.4025476736E+01      0.9329133616E+01
          0                 2           2             5    6     1      -0.9837243984E-01       5    8    1        -0.5422266409E+01      0.1314751716E+02
          0                 3           2             4    7     1       0.2286928229E-01       5    8    1         0.1276341247E+01      0.3114824230E+01
          0                 4           2             4    7     1      -0.9099928540E-03       5    8    1        -0.5219533478E-01      0.1276076406E+00
          0                 5           1             4    7     1       0.1122060205E-04       5    8    1         0.6609842976E-03      0.1655235518E-02

    ------------------------------------------------
       NWT REQUIRED            5 OUTER ITERATIONS 
       AND A TOTAL OF          9 INNER ITERATIONS.
    ------------------------------------------------

 NO OUTPUT CONTROL FOR STRESS PERIOD   44   TIME STEP   28
 
 SOLVING FOR HEAD 
                                                   Max.-Head-Change                         Max.-Flux-Residual
  Residual-Control   Outer-Iter.   Inner-Iter.     Column Row Layer    Maximum-Head-Change  Column Row Layer    Maximum-Flux-Residual          L2-NORM 
          0                 1           2             5    8     1       0.7226970627E-01       5    8    1         0.3949125938E+01      0.9175855131E+01
          0                 2           2             4    7     1      -0.3005959272E+00       5    8    1        -0.1632937152E+02      0.3981638583E+02
          0                 3           2             4    7     1       0.2046901583E-01       5    8    1         0.1142946823E+01      0.2787858479E+01
          0                 4           2             4    7     1      -0.8144834481E-03       5    8    1        -0.4673837521E-01      0.1140809646E+00
          0                 5           1             4    7     1       0.1004293049E-04       5    8    1         0.5917535218E-03      0.1458494331E-02

    ------------------------------------------------
       NWT REQUIRED            5 OUTER ITERATIONS 
       AND A TOTAL OF          9 INNER ITERATIONS.
    ------------------------------------------------

 NO OUTPUT CONTROL FOR STRESS PERIOD   44   TIME STEP   29
 
 SOLVING FOR HEAD 
                                                   Max.-Head-Change                         Max.-Flux-Residual
  Residual-Control   Outer-Iter.   Inner-Iter.     Column Row Layer    Maximum-Head-Change  Column Row Layer    Maximum-Flux-Residual          L2-NORM 
          0                 1           2             5    8     1       0.7740371244E-01       5    8    1         0.4230899757E+01      0.9792569244E+01
          0                 2           2             5    6     1      -0.1199660518E+00       5    8    1        -0.6609959444E+01      0.1601390201E+02
          0                 3           2             5    6     1       0.8169188435E-02       5    8    1         0.4626938069E+00      0.1123234629E+01
          0                 4           2             5    6     1      -0.3250599110E-03       5    8    1        -0.1892421956E-01      0.4611052639E-01
          0                 5           1             5    6     1       0.4008121801E-05       5    8    1         0.2398281649E-03      0.6156269981E-03

    ------------------------------------------------
       NWT REQUIRED            5 OUTER ITERATIONS 
       AND A TOTAL OF          9 INNER ITERATIONS.
    ------------------------------------------------

 NO OUTPUT CONTROL FOR STRESS PERIOD   44   TIME STEP   30



 STREAM LISTING     PERIOD     44   STEP       30

 LAYER ROW COL. STREAM  RCH.  FLOW INTO     FLOW TO   FLOW OUT OF   OVRLND.     DIRECT     STREAM       STREAM     STREAM     STREAM   STREAMBED  STREAMBED
                SEG.NO.  NO.  STRM. RCH.    AQUIFER    STRM. RCH.    RUNOFF     PRECIP       ET          HEAD       DEPTH      WIDTH   CONDCTNC.   GRADIENT

   1    1    1     1     1    2.7749E+01  2.5751E-01   2.7492E+01  0.000E+00  0.000E+00  0.000E+00  1.09427E+03  1.218E+00  1.357E+01  6.105E-02  1.406E+00
   1    2    2     1     2    2.7492E+01  3.9832E-01   2.7093E+01  0.000E+00  0.000E+00  0.000E+00  1.08927E+03  1.213E+00  1.351E+01  9.454E-02  1.404E+00
   1    3    3     1     3    2.7093E+01  3.3923E-01   2.6754E+01  0.000E+00  0.000E+00  0.000E+00  1.08363E+03  1.208E+00  1.344E+01  8.062E-02  1.403E+00
   1    3    4     1     4    2.6754E+01  3.1200E-01   2.6442E+01  0.000E+00  0.000E+00  0.000E+00  1.07861E+03  1.203E+00  1.337E+01  7.422E-02  1.401E+00
   1    4    5     2     1    2.4442E+01  3.2655E-01   2.4116E+01  0.000E+00  0.000E+00  0.000E+00  1.07312E+03  1.187E+00  1.200E+01  7.800E-02  1.396E+00
   1    5    6     2     2    2.4116E+01  2.5068E-01   2.3865E+01  0.000E+00  0.000E+00  0.000E+00  1.06769E+03  1.178E+00  1.200E+01  6.000E-02  1.393E+00
   1    6    6     2     3    2.3865E+01  2.5024E-01   2.3615E+01  0.000E+00  0.000E+00  0.000E+00  1.06296E+03  1.171E+00  1.200E+01  6.000E-02  1.390E+00
   1    7    6     2     4    2.3615E+01  2.4979E-01   2.3365E+01  0.000E+00  0.000E+00  0.000E+00  1.05824E+03  1.163E+00  1.200E+01  6.000E-02  1.388E+00
   1    8    6     2     5    2.3365E+01  2.4935E-01   2.3115E+01  0.000E+00  0.000E+00  0.000E+00  1.05351E+03  1.156E+00  1.200E+01  6.000E-02  1.385E+00
   1    3    5     3     1    2.0000E+00  2.8252E-01   1.7175E+00  0.000E+00  0.000E+00  0.000E+00  1.07555E+03  1.909E+00  9.636E+00  7.227E-02  1.955E+00
   1    3    6     3     2    1.7175E+00  2.4905E-01   1.4684E+00  0.000E+00  0.000E+00  0.000E+00  1.07264E+03  1.727E+00  8.909E+00  6.682E-02  1.864E+00
   1    3    7     3     3    1.4684E+00  1.9718E-01   1.2712E+00  0.000E+00  0.000E+00  0.000E+00  1.06987E+03  1.555E+00  8.218E+00  5.547E-02  1.777E+00
   1    4    8     3     4    1.2712E+00  2.2567E-01   1.0456E+00  0.000E+00  0.000E+00  0.000E+00  1.06682E+03  1.364E+00  7.455E+00  6.709E-02  1.682E+00
   1    5    8     3     5    1.0456E+00  1.5790E-01   8.8768E-01  0.000E+00  0.000E+00  0.000E+00  1.06362E+03  1.164E+00  6.655E+00  4.991E-02  1.582E+00
   1    6    8     3     6    8.8768E-01  5.5980E-02   8.3170E-01  0.000E+00  0.000E+00  0.000E+00  1.06158E+03  1.036E+00  6.145E+00  1.844E-02  1.518E+00
   1    5   10     4     1    1.0000E+01  9.0919E-02   9.9091E+00  0.000E+00  0.000E+00  0.000E+00  1.07836E+03  6.368E-01  1.000E+01  2.500E-02  1.212E+00
   1    5    9     4     2    9.9091E+00  1.8158E-01   9.7275E+00  0.000E+00  0.000E+00  0.000E+00  1.07154E+03  6.315E-01  1.000E+01  5.000E-02  1.211E+00
   1    6    8     4     3    9.7275E+00  1.2689E-01   9.6006E+00  0.000E+00  0.000E+00  0.000E+00  1.06381E+03  6.256E-01  1.000E+01  3.500E-02  1.209E+00
   1    6    8     5     1    1.0432E+01  2.2686E-01   1.0205E+01  0.000E+00  0.000E+00  0.000E+00  1.05868E+03  6.790E-01  1.542E+01  6.166E-02  1.226E+00
   1    7    7     5     2    1.0205E+01  2.7894E-01   9.9265E+00  0.000E+00  0.000E+00  0.000E+00  1.05417E+03  6.732E-01  1.519E+01  7.594E-02  1.224E+00
   1    8    7     5     3    9.9265E+00  1.9221E-01   9.7343E+00  0.000E+00  0.000E+00  0.000E+00  1.04992E+03  6.676E-01  1.497E+01  5.241E-02  1.223E+00
   1    8    6     5     4    9.7343E+00  1.3577E-01   9.5985E+00  0.000E+00  0.000E+00  0.000E+00  1.04691E+03  6.637E-01  1.482E+01  3.706E-02  1.221E+00
   1    9    6     6     1    9.5985E+00  2.2097E-01   9.3776E+00  0.000E+00  0.000E+00  0.000E+00  1.04341E+03  6.828E-01  1.200E+01  6.000E-02  1.228E+00
   1   10    7     6     2    9.3776E+00  2.2039E-01   9.1572E+00  0.000E+00  0.000E+00  0.000E+00  1.03885E+03  6.732E-01  1.200E+01  6.000E-02  1.224E+00
   1   11    7     6     3    9.1572E+00  2.1981E-01   8.9374E+00  0.000E+00  0.000E+00  0.000E+00  1.03430E+03  6.636E-01  1.200E+01  6.000E-02  1.221E+00
   1   12    7     6     4    8.9374E+00  2.1923E-01   8.7181E+00  0.000E+00  0.000E+00  0.000E+00  1.02974E+03  6.539E-01  1.200E+01  6.000E-02  1.218E+00
   1   13    7     6     5    8.7181E+00 -8.7886E-02   8.8060E+00  0.000E+00  0.000E+00  0.000E+00  1.02656E+03  6.509E-01  1.200E+01  2.400E-01 -1.221E-01
   1   14    9     7     1    1.5000E+02  1.3531E+00   1.4865E+02  0.000E+00  0.000E+00  0.000E+00  1.03987E+03  2.288E+00  5.529E+01  5.593E-01  8.064E-01
   1   13    8     7     2    1.4865E+02  1.8803E+00   1.4677E+02  0.000E+00  0.000E+00  0.000E+00  1.03478E+03  2.279E+00  5.526E+01  6.148E-01  1.020E+00
   1   13    7     7     3    1.4677E+02  1.5430E+00   1.4522E+02  0.000E+00  0.000E+00  0.000E+00  1.02969E+03  2.270E+00  5.521E+01  5.584E-01  9.210E-01
   1   13    6     8     1    1.5403E+02  8.9622E-01   1.5313E+02  0.000E+00  0.000E+00  0.000E+00  1.02472E+03  2.842E+00  4.121E+01  4.199E-01  7.114E-01
   1   13    5     8     2    1.5313E+02  1.6462E-01   1.5297E+02  0.000E+00  0.000E+00  0.000E+00  1.01846E+03  2.838E+00  4.115E+01  4.194E-01  1.308E-01
   1   13    4     8     3    1.5297E+02 -2.4537E+00   1.5542E+02  0.000E+00  0.000E+00  0.000E+00  1.01222E+03  2.846E+00  4.127E+01  4.205E+00 -1.945E-01
   1   13    3     8     4    1.5542E+02 -3.6615E+00   1.5908E+02  0.000E+00  0.000E+00  0.000E+00  1.00599E+03  2.867E+00  4.157E+01  4.237E+00 -2.881E-01
   1   13    2     8     5    1.5908E+02 -2.6204E+00   1.6170E+02  0.000E+00  0.000E+00  0.000E+00  9.99763E+02  2.889E+00  4.188E+01  4.268E+00 -2.046E-01
   1   13    1     8     6    1.6170E+02 -2.0402E+00   1.6374E+02  0.000E+00  0.000E+00  0.000E+00  9.94779E+02  2.904E+00  4.211E+01  2.575E+00 -2.641E-01
   1    8    6     9     1    2.3115E+01  0.0000E+00   2.3115E+01  0.000E+00  0.000E+00  0.000E+00  1.08250E+03  3.746E+00  4.000E+00  0.000E+00  2.249E+00
   1    8    5     9     2    2.3115E+01  0.0000E+00   2.3115E+01  0.000E+00  0.000E+00  0.000E+00  1.08200E+03  3.746E+00  4.000E+00  0.000E+00  2.249E+00





UNSATURATED ZONE PACKAGE VOLUMETRIC BUDGET FOR  TIME STEP    30 STRESS PERIOD   44
  ------------------------------------------------------------------------------



     CUMULATIVE VOLUMES      L**3       RATES FOR THIS TIME STEP      L**3/T
     ------------------                 ------------------------

           IN:                                      IN:
           ---                                      ---
        INFILTRATION =  2252029755.5720          INFILTRATION =          64.6447

          OUT:                                     OUT:
          ----                                     ----
              UZF ET =  1793568380.7998                UZF ET =          64.1075
        UZF RECHARGE =    79902034.3175          UZF RECHARGE =       0.0000E+00

            IN - OUT =   378559340.4547              IN - OUT =           0.5372

          STORAGE:                                 STORAGE:
          --------                                 --------
      STORAGE CHANGE =   378560850.5864        STORAGE CHANGE =           0.5372

 PERCENT DISCREPANCY IS DIFFERENCE BETWEEN IN-OUT MINUS CHANGE IN STORAGE
 DIVIDED BY THE AVERAGE OF IN AND OUT TIMES 100

 PERCENT DISCREPANCY =          -0.00     PERCENT DISCREPANCY =           0.00






1
  VOLUMETRIC BUDGET FOR AGRICULTURAL FIELDS AT  END OF TIME STEP   30, STRESS PERIOD  44
  ------------------------------------------------------------------------------

     CUMULATIVE VOLUMES      L**3       RATES FOR THIS TIME STEP      L**3/T
     ------------------                 ------------------------

           IN:                                      IN:
           ---                                      ---
               AG WELLS  =   656234496.0000                 AG WELLS  =          37.1213
      DIVERSION SEGMENTS =  1097759488.0000        DIVERSION SEGMENTS =          23.1155
           GW IRRIGATION =           0.0000             GW IRRIGATION =           0.0000
           SW IRRIGATION =           0.0000             SW IRRIGATION =           0.0000
        SYSTEM LOSSES GW =           0.0000          SYSTEM LOSSES GW =           0.0000
        SYSTEM LOSSES SW =           0.0000          SYSTEM LOSSES SW =           0.0000

                TOTAL IN =  1753993984.0000                  TOTAL IN =          60.2367

          OUT:                                     OUT:
          ----                                     ----
               AG WELLS  =           0.0000                 AG WELLS  =           0.0000
      DIVERSION SEGMENTS =           0.0000        DIVERSION SEGMENTS =           0.0000
           GW IRRIGATION =   656234496.0000             GW IRRIGATION =          37.1213
           SW IRRIGATION =  1097779968.0000             SW IRRIGATION =          23.1159
        SYSTEM LOSSES GW =           0.0000          SYSTEM LOSSES GW =           0.0000
        SYSTEM LOSSES SW =           0.0000          SYSTEM LOSSES SW =           0.0000

               TOTAL OUT =  1754014464.0000                 TOTAL OUT =          60.2372

                IN - OUT =      -20480.0000                  IN - OUT =      -4.6158E-04

     PERCENT DISCREPANCY =          -0.00         PERCENT DISCREPANCY =          -0.00



1
  VOLUMETRIC BUDGET FOR ENTIRE MODEL AT END OF TIME STEP   30, STRESS PERIOD  44
  ------------------------------------------------------------------------------

     CUMULATIVE VOLUMES      L**3       RATES FOR THIS TIME STEP      L**3/T
     ------------------                 ------------------------

           IN:                                      IN:
           ---                                      ---
             STORAGE     =  1019585792.0000               STORAGE     =          36.4982
       CONSTANT HEAD     =           0.0000         CONSTANT HEAD     =           0.0000
     HEAD DEP BOUNDS     =    32378792.0000       HEAD DEP BOUNDS     =           0.2869
      STREAM LEAKAGE     =  1367198976.0000        STREAM LEAKAGE     =          11.7527
        UZF RECHARGE     =    79902024.0000          UZF RECHARGE     =           0.0000
               GW ET     =           0.0000                 GW ET     =           0.0000
     SURFACE LEAKAGE     =           0.0000       SURFACE LEAKAGE     =           0.0000
           AG WELLS      =           0.0000             AG WELLS      =           0.0000

                TOTAL IN =  2499065600.0000                  TOTAL IN =          48.5378

          OUT:                                     OUT:
          ----                                     ----
             STORAGE     =   601913024.0000               STORAGE     =           0.2651
       CONSTANT HEAD     =           0.0000         CONSTANT HEAD     =           0.0000
     HEAD DEP BOUNDS     =    32917158.0000       HEAD DEP BOUNDS     =           0.2877
      STREAM LEAKAGE     =  1205144320.0000        STREAM LEAKAGE     =          10.8636
        UZF RECHARGE     =           0.0000          UZF RECHARGE     =           0.0000
               GW ET     =     2857194.5000                 GW ET     =           0.0000
     SURFACE LEAKAGE     =           0.0000       SURFACE LEAKAGE     =           0.0000
           AG WELLS      =   656234496.0000             AG WELLS      =          37.1213

               TOTAL OUT =  2499066368.0000                 TOTAL OUT =          48.5378

                IN - OUT =        -768.0000                  IN - OUT =       3.0518E-05

     PERCENT DISCREPANCY =          -0.00         PERCENT DISCREPANCY =           0.00






         TIME SUMMARY AT END OF TIME STEP   30 IN STRESS PERIOD   44
                    SECONDS     MINUTES      HOURS       DAYS        YEARS
                    -----------------------------------------------------------
   TIME STEP LENGTH  87667.      1461.1      24.352      1.0147     2.77799E-03
 STRESS PERIOD TIME 2.63000E+06  43833.      730.56      30.440     8.33397E-02
         TOTAL TIME 1.13175E+08 1.88626E+06  31438.      1309.9      3.5863    
1
1
                            STRESS PERIOD NO.   45, LENGTH =   2630000.    
                            -----------------------------------------------

                              NUMBER OF TIME STEPS =    30

                               MULTIPLIER FOR DELT =     1.000

                            INITIAL TIME STEP SIZE =   87666.66    

 REUSING NON-PARAMETER GHB CELLS FROM LAST STRESS PERIOD

      2 GHB CELLS

 REUSING STREAM SEGMENT DATA FROM LAST STRESS PERIOD



            AREAL INFILTRATION RATE
 READING ON UNIT   19 WITH FORMAT: (10F4.0)            

            1           2           3           4           5           6           7           8           9          10
 ........................................................................................................................
   1   1.2000E-09   0.000       0.000       0.000       0.000       0.000       0.000       0.000       0.000       0.000    
   2   2.1000E-09  2.0000E-09  8.0000E-10  8.5000E-09   0.000       0.000       0.000       0.000       0.000       0.000    
   3   5.0000E-10  1.1000E-09  8.8000E-09  5.5000E-09   0.000       0.000       0.000       0.000       0.000       0.000    
   4   8.5000E-09  1.1000E-09  1.1000E-09  1.1000E-09  2.0000E-09   0.000       0.000       0.000       0.000       0.000    
   5   8.5000E-09  1.1000E-09  1.1000E-09  1.1000E-09  1.1000E-09   0.000       0.000       0.000       0.000       0.000    
   6   8.5000E-09  5.2000E-09  2.1000E-09  1.1000E-09  1.5000E-09   0.000       0.000       0.000       0.000       0.000    
   7   8.5000E-09  5.2000E-09  2.1000E-09  1.2000E-09  2.0000E-09   0.000       0.000       0.000       0.000       0.000    
   8   5.0000E-10  5.2000E-09  2.1000E-09  1.2000E-09  5.0000E-09   0.000       0.000       0.000       0.000       0.000    
   9   5.0000E-10  5.2000E-09  2.1000E-09  1.2000E-09  5.0000E-09   0.000       0.000       0.000       0.000       0.000    
  10   5.0000E-10  5.2000E-09  2.1000E-09  1.2000E-09  5.8000E-09   0.000       0.000       0.000       0.000       0.000    
  11   1.0000E-10  1.1000E-09  1.1000E-09  1.2000E-09  5.0000E-09   0.000       0.000       0.000       0.000       0.000    
  12   1.1000E-09  1.1000E-09  1.1000E-09  1.1000E-09  2.0000E-09   0.000       0.000       0.000       0.000       0.000    
  13   1.1000E-09  2.2000E-09  2.2000E-09  2.1000E-09  1.0000E-09   0.000       0.000       0.000       0.000       0.000    
  14   2.0000E-10  5.5000E-09  5.5000E-09  5.2000E-09  1.0000E-09   0.000       0.000       0.000       0.000       0.000    
  15    0.000      8.8000E-09  8.8000E-09   0.000       0.000       0.000       0.000       0.000       0.000       0.000    

                  ET RATE =  3.250000E-07

 USING ET EXTINCTION DEPTH FROM PREVIOUS STRESS PERIOD. CURRENT PERIOD IS:      45

 USING EXTINCTION WATER CONTENT FROM PREVIOUS STRESS PERIOD. CURRENT PERIOD IS:      45

 USING AIR ENTRY PRESSURE FROM PREVIOUS STRESS PERIOD. CURRENT PERIOD IS:      45

 USING ROOT PRESSURE HEAD FROM PREVIOUS STRESS PERIOD. CURRENT PERIOD IS:      45

 USING ROOT ACTIVITY FROM PREVIOUS STRESS PERIOD. CURRENT PERIOD IS:      45

 PROCESSING AG STRESS PERIOD DATA

 READING AG STRESS PERIOD DATA

 READING IRRIGATION SEGMENT

 READING IRRIGATION WELL

 READING SUPPLEMENTAL WELL

 END PROCESSING AG STRESS PERIOD DATA OPTIONS
 
 SOLVING FOR HEAD 
                                                   Max.-Head-Change                         Max.-Flux-Residual
  Residual-Control   Outer-Iter.   Inner-Iter.     Column Row Layer    Maximum-Head-Change  Column Row Layer    Maximum-Flux-Residual          L2-NORM 
          0                 1           2             5    8     1       0.7700053973E-01       5    8    1         0.4206907001E+01      0.9790875341E+01
          0                 2           2             4    7     1      -0.2310428669E+00       5    8    1        -0.1260514982E+02      0.3068960916E+02
          0                 3           2             4    7     1       0.1573290819E-01       5    8    1         0.8823226169E+00      0.2149385483E+01
          0                 4           2             4    7     1      -0.6260283483E-03       5    8    1        -0.3608474622E-01      0.8799594223E-01
          0                 5           1             4    7     1       0.7719198852E-05       5    8    1         0.4571443083E-03      0.1131585209E-02

    ------------------------------------------------
       NWT REQUIRED            5 OUTER ITERATIONS 
       AND A TOTAL OF          9 INNER ITERATIONS.
    ------------------------------------------------

 NO OUTPUT CONTROL FOR STRESS PERIOD   45   TIME STEP    1
 
 SOLVING FOR HEAD 
                                                   Max.-Head-Change                         Max.-Flux-Residual
  Residual-Control   Outer-Iter.   Inner-Iter.     Column Row Layer    Maximum-Head-Change  Column Row Layer    Maximum-Flux-Residual          L2-NORM 
          0                 1           2             5    8     1       0.7989237735E-01       5    8    1         0.4364858391E+01      0.1015676184E+02
          0                 2           2             5    8     1      -0.3883938359E-01       5    8    1        -0.2147257659E+01      0.5098291649E+01
          0                 3           2             4    7     1       0.3204976411E-01       5    8    1         0.1783067344E+01      0.4368558316E+01
          0                 4           2             4    7     1      -0.1279264321E-02       5    8    1        -0.7313959735E-01      0.1886327535E+00
          0                 5           2             4   13     1      -0.1727056225E-03       4   13    1        -0.1072726346E-01      0.1862585577E-01
          0                 6           2             4   13     1      -0.1702150919E-03       4   13    1        -0.1057136917E-01      0.2537429389E-01
          0                 7           2             4    7     1       0.2627829197E-03       5    6    1         0.1531643232E-01      0.4127670179E-01
          0                 8           2             4    7     1       0.9963191849E-03       5    8    1         0.5807025591E-01      0.1428910456E+00
          0                 9           1             4    7     1       0.1462350153E-04       5    8    1         0.8530512696E-03      0.2107746530E-02

    ------------------------------------------------
       NWT REQUIRED            9 OUTER ITERATIONS 
       AND A TOTAL OF         17 INNER ITERATIONS.
    ------------------------------------------------

 NO OUTPUT CONTROL FOR STRESS PERIOD   45   TIME STEP    2
 
 SOLVING FOR HEAD 
                                                   Max.-Head-Change                         Max.-Flux-Residual
  Residual-Control   Outer-Iter.   Inner-Iter.     Column Row Layer    Maximum-Head-Change  Column Row Layer    Maximum-Flux-Residual          L2-NORM 
          0                 1           2             5    8     1       0.7606075719E-01       5    8    1         0.4151683476E+01      0.9770821022E+01
          0                 2           2             5    7     1      -0.1590825503E+00       5    8    1        -0.8722312085E+01      0.2120673033E+02
          0                 3           2             5    7     1       0.1083281847E-01       5    8    1         0.6105557493E+00      0.1486140081E+01
          0                 4           2             5    7     1      -0.4310485208E-03       5    8    1        -0.2497179445E-01      0.6090967924E-01
          0                 5           1             5    7     1       0.5315020622E-05       5    8    1         0.3164695486E-03      0.7952997153E-03

    ------------------------------------------------
       NWT REQUIRED            5 OUTER ITERATIONS 
       AND A TOTAL OF          9 INNER ITERATIONS.
    ------------------------------------------------

 NO OUTPUT CONTROL FOR STRESS PERIOD   45   TIME STEP    3
 
 SOLVING FOR HEAD 
                                                   Max.-Head-Change                         Max.-Flux-Residual
  Residual-Control   Outer-Iter.   Inner-Iter.     Column Row Layer    Maximum-Head-Change  Column Row Layer    Maximum-Flux-Residual          L2-NORM 
          0                 1           2             5    8     1       0.7696900072E-01       5    8    1         0.4200351014E+01      0.9908275358E+01
          0                 2           2             5    6     1      -0.4778433321E-01       5    8    1        -0.2638905404E+01      0.6328673498E+01
          0                 3           2             4    7     1       0.3272317322E-01       5    8    1         0.1818426725E+01      0.4454583206E+01
          0                 4           2             7   13     1      -0.1409186144E-02       7   13    1        -0.7853776563E-01      0.1996059670E+00
          0                 5           1             7   13     1       0.9592923984E-04       7   13    1         0.5495125755E-02      0.6050343504E-02

    ------------------------------------------------
       NWT REQUIRED            5 OUTER ITERATIONS 
       AND A TOTAL OF          9 INNER ITERATIONS.
    ------------------------------------------------

 NO OUTPUT CONTROL FOR STRESS PERIOD   45   TIME STEP    4
 
 SOLVING FOR HEAD 
                                                   Max.-Head-Change                         Max.-Flux-Residual
  Residual-Control   Outer-Iter.   Inner-Iter.     Column Row Layer    Maximum-Head-Change  Column Row Layer    Maximum-Flux-Residual          L2-NORM 
          0                 1           2             5    8     1       0.7367687555E-01       5    8    1         0.4017221935E+01      0.9578601075E+01
          0                 2           2             4    7     1      -0.1689404346E+00       5    8    1        -0.9232579404E+01      0.2247896878E+02
          0                 3           2             4    7     1       0.1150408562E-01       5    8    1         0.6462733020E+00      0.1575080672E+01
          0                 4           2             4    7     1      -0.4577589559E-03       5    8    1        -0.2643260951E-01      0.6453886529E-01
          0                 5           1             4    7     1       0.5644365186E-05       5    8    1         0.3349799595E-03      0.8397954143E-03

    ------------------------------------------------
       NWT REQUIRED            5 OUTER ITERATIONS 
       AND A TOTAL OF          9 INNER ITERATIONS.
    ------------------------------------------------

 NO OUTPUT CONTROL FOR STRESS PERIOD   45   TIME STEP    5
 
 SOLVING FOR HEAD 
                                                   Max.-Head-Change                         Max.-Flux-Residual
  Residual-Control   Outer-Iter.   Inner-Iter.     Column Row Layer    Maximum-Head-Change  Column Row Layer    Maximum-Flux-Residual          L2-NORM 
          0                 1           2             5    8     1       0.7505535595E-01       5    8    1         0.4092070508E+01      0.9761102040E+01
          0                 2           2             5    6     1      -0.4622246986E-01       5    8    1        -0.2551357415E+01      0.6133674749E+01
          0                 3           2             4    7     1       0.3402749695E-01       5    8    1         0.1889018941E+01      0.4629949789E+01
          0                 4           2             7   13     1      -0.1402632997E-02       7   13    1        -0.7817499086E-01      0.2061473202E+00
          0                 5           1             7   13     1       0.9548365978E-04       7   13    1         0.5469711093E-02      0.6071122050E-02

    ------------------------------------------------
       NWT REQUIRED            5 OUTER ITERATIONS 
       AND A TOTAL OF          9 INNER ITERATIONS.
    ------------------------------------------------

 NO OUTPUT CONTROL FOR STRESS PERIOD   45   TIME STEP    6
 
 SOLVING FOR HEAD 
                                                   Max.-Head-Change                         Max.-Flux-Residual
  Residual-Control   Outer-Iter.   Inner-Iter.     Column Row Layer    Maximum-Head-Change  Column Row Layer    Maximum-Flux-Residual          L2-NORM 
          0                 1           2             5    8     1       0.7183685399E-01       5    8    1         0.3913198170E+01      0.9436952669E+01
          0                 2           2             4    7     1      -0.1662505505E+00       5    8    1        -0.9069644719E+01      0.2209989861E+02
          0                 3           2             4    7     1       0.1132091662E-01       5    8    1         0.6348655001E+00      0.1548553606E+01
          0                 4           2             4    7     1      -0.4504704799E-03       5    8    1        -0.2596576994E-01      0.6345438161E-01
          0                 5           1             4    7     1       0.5554495123E-05       5    8    1         0.3290461291E-03      0.8264176667E-03

    ------------------------------------------------
       NWT REQUIRED            5 OUTER ITERATIONS 
       AND A TOTAL OF          9 INNER ITERATIONS.
    ------------------------------------------------

 NO OUTPUT CONTROL FOR STRESS PERIOD   45   TIME STEP    7
 
 SOLVING FOR HEAD 
                                                   Max.-Head-Change                         Max.-Flux-Residual
  Residual-Control   Outer-Iter.   Inner-Iter.     Column Row Layer    Maximum-Head-Change  Column Row Layer    Maximum-Flux-Residual          L2-NORM 
          0                 1           2             5    8     1       0.7328185806E-01       5    8    1         0.3991895954E+01      0.9620450187E+01
          0                 2           2             5    6     1      -0.4646692527E-01       5    8    1        -0.2563381551E+01      0.6180696853E+01
          0                 3           2             4    7     1       0.3366576502E-01       5    8    1         0.1867818982E+01      0.4579056640E+01
          0                 4           2             7   13     1      -0.1397010697E-02       7   13    1        -0.7786116004E-01      0.2040826234E+00
          0                 5           1             7   13     1       0.9510046749E-04       7   13    1         0.5447739465E-02      0.6038601044E-02

    ------------------------------------------------
       NWT REQUIRED            5 OUTER ITERATIONS 
       AND A TOTAL OF          9 INNER ITERATIONS.
    ------------------------------------------------

 NO OUTPUT CONTROL FOR STRESS PERIOD   45   TIME STEP    8
 
 SOLVING FOR HEAD 
                                                   Max.-Head-Change                         Max.-Flux-Residual
  Residual-Control   Outer-Iter.   Inner-Iter.     Column Row Layer    Maximum-Head-Change  Column Row Layer    Maximum-Flux-Residual          L2-NORM 
          0                 1           2             5    8     1       0.7022929830E-01       5    8    1         0.3822347242E+01      0.9312301867E+01
          0                 2           2             4    7     1      -0.1672127049E+00       5    8    1        -0.9104911435E+01      0.2220309761E+02
          0                 3           2             4    7     1       0.1138643182E-01       5    8    1         0.6373304096E+00      0.1555750406E+01
          0                 4           2             4    7     1      -0.4530774099E-03       5    8    1        -0.2606622336E-01      0.6374656675E-01
          0                 5           1             4    7     1       0.5586640132E-05       5    6    1         0.3303005151E-03      0.8293698042E-03

    ------------------------------------------------
       NWT REQUIRED            5 OUTER ITERATIONS 
       AND A TOTAL OF          9 INNER ITERATIONS.
    ------------------------------------------------

 NO OUTPUT CONTROL FOR STRESS PERIOD   45   TIME STEP    9
 
 SOLVING FOR HEAD 
                                                   Max.-Head-Change                         Max.-Flux-Residual
  Residual-Control   Outer-Iter.   Inner-Iter.     Column Row Layer    Maximum-Head-Change  Column Row Layer    Maximum-Flux-Residual          L2-NORM 
          0                 1           2             5    8     1       0.7182787910E-01       5    8    1         0.3909667855E+01      0.9506983951E+01
          0                 2           2             5    6     1      -0.4622058934E-01       5    8    1        -0.2548724998E+01      0.6159506050E+01
          0                 3           2             4    7     1       0.3378310415E-01       5    8    1         0.1873227324E+01      0.4593493467E+01
          0                 4           2             7   13     1      -0.1391430625E-02       7   13    1        -0.7755052329E-01      0.2045150143E+00
          0                 5           1             7   13     1       0.9472126653E-04       7   13    1         0.5426032883E-02      0.6022640575E-02

    ------------------------------------------------
       NWT REQUIRED            5 OUTER ITERATIONS 
       AND A TOTAL OF          9 INNER ITERATIONS.
    ------------------------------------------------

 NO OUTPUT CONTROL FOR STRESS PERIOD   45   TIME STEP   10
 
 SOLVING FOR HEAD 
                                                   Max.-Head-Change                         Max.-Flux-Residual
  Residual-Control   Outer-Iter.   Inner-Iter.     Column Row Layer    Maximum-Head-Change  Column Row Layer    Maximum-Flux-Residual          L2-NORM 
          0                 1           2             5    6     1       0.6892004691E-01       5    8    1         0.3746405056E+01      0.9209377652E+01
          0                 2           2             4    7     1      -0.1670948887E+00       5    8    1        -0.9084416104E+01      0.2216733829E+02
          0                 3           2             4    7     1       0.1137840714E-01       5    8    1         0.6358930101E+00      0.1553231879E+01
          0                 4           2             4    7     1      -0.4527581089E-03       5    8    1        -0.2600716401E-01      0.6364242806E-01
          0                 5           1             4    7     1       0.5582702699E-05       5    6    1         0.3295802853E-03      0.8280259332E-03

    ------------------------------------------------
       NWT REQUIRED            5 OUTER ITERATIONS 
       AND A TOTAL OF          9 INNER ITERATIONS.
    ------------------------------------------------

 NO OUTPUT CONTROL FOR STRESS PERIOD   45   TIME STEP   11
 
 SOLVING FOR HEAD 
                                                   Max.-Head-Change                         Max.-Flux-Residual
  Residual-Control   Outer-Iter.   Inner-Iter.     Column Row Layer    Maximum-Head-Change  Column Row Layer    Maximum-Flux-Residual          L2-NORM 
          0                 1           2             5    8     1       0.7058784512E-01       5    8    1         0.3839499571E+01      0.9410267788E+01
          0                 2           2             5    6     1      -0.4614323666E-01       5    8    1        -0.2543577800E+01      0.6159577558E+01
          0                 3           2             4    7     1       0.3375957658E-01       5    8    1         0.1870997436E+01      0.4588959206E+01
          0                 4           2             7   13     1      -0.1386118821E-02       7   13    1        -0.7725457276E-01      0.2042283115E+00
          0                 5           1             7   13     1       0.9436080618E-04       7   13    1         0.5405386411E-02      0.6002592967E-02

    ------------------------------------------------
       NWT REQUIRED            5 OUTER ITERATIONS 
       AND A TOTAL OF          9 INNER ITERATIONS.
    ------------------------------------------------

 NO OUTPUT CONTROL FOR STRESS PERIOD   45   TIME STEP   12
 
 SOLVING FOR HEAD 
                                                   Max.-Head-Change                         Max.-Flux-Residual
  Residual-Control   Outer-Iter.   Inner-Iter.     Column Row Layer    Maximum-Head-Change  Column Row Layer    Maximum-Flux-Residual          L2-NORM 
          0                 1           2             5    6     1       0.6786522797E-01       5    8    1         0.3682071561E+01      0.9122695112E+01
          0                 2           2             4    7     1      -0.1672752151E+00       5    8    1        -0.9081735629E+01      0.2217311460E+02
          0                 3           2             4    7     1       0.1139068457E-01       5    8    1         0.6357028780E+00      0.1553620271E+01
          0                 4           2             4    7     1      -0.4532466496E-03       5    6    1        -0.2599970695E-01      0.6365737593E-01
          0                 5           1             4    7     1       0.5588726745E-05       5    6    1         0.3294797802E-03      0.8281484302E-03

    ------------------------------------------------
       NWT REQUIRED            5 OUTER ITERATIONS 
       AND A TOTAL OF          9 INNER ITERATIONS.
    ------------------------------------------------

 NO OUTPUT CONTROL FOR STRESS PERIOD   45   TIME STEP   13
 
 SOLVING FOR HEAD 
                                                   Max.-Head-Change                         Max.-Flux-Residual
  Residual-Control   Outer-Iter.   Inner-Iter.     Column Row Layer    Maximum-Head-Change  Column Row Layer    Maximum-Flux-Residual          L2-NORM 
          0                 1           2             5    6     1       0.6957361725E-01       5    8    1         0.3780547582E+01      0.9329587868E+01
          0                 2           2             5    6     1      -0.4603900870E-01       5    8    1        -0.2537138694E+01      0.6154644912E+01
          0                 3           2             4    7     1       0.3377596068E-01       5    8    1         0.1871090774E+01      0.4590006000E+01
          0                 4           2             7   13     1      -0.1380991017E-02       7   13    1        -0.7696895278E-01      0.2041646589E+00
          0                 5           1             7   13     1       0.9400890505E-04       7   13    1         0.5385237651E-02      0.5986325591E-02

    ------------------------------------------------
       NWT REQUIRED            5 OUTER ITERATIONS 
       AND A TOTAL OF          9 INNER ITERATIONS.
    ------------------------------------------------

 NO OUTPUT CONTROL FOR STRESS PERIOD   45   TIME STEP   14
 
 SOLVING FOR HEAD 
                                                   Max.-Head-Change                         Max.-Flux-Residual
  Residual-Control   Outer-Iter.   Inner-Iter.     Column Row Layer    Maximum-Head-Change  Column Row Layer    Maximum-Flux-Residual          L2-NORM 
          0                 1           2             5    6     1       0.6697085028E-01       5    6    1         0.3628990633E+01      0.9050468739E+01
          0                 2           2             4    7     1      -0.1673545834E+00       5    6    1        -0.9075335595E+01      0.2216777904E+02
          0                 3           2             4    7     1       0.1139608749E-01       5    6    1         0.6352606911E+00      0.1553227451E+01
          0                 4           2             4    7     1      -0.4534616453E-03       5    6    1        -0.2598163998E-01      0.6363984679E-01
          0                 5           1             4    7     1       0.5591377576E-05       5    6    1         0.3292272836E-03      0.8277476972E-03

    ------------------------------------------------
       NWT REQUIRED            5 OUTER ITERATIONS 
       AND A TOTAL OF          9 INNER ITERATIONS.
    ------------------------------------------------

 NO OUTPUT CONTROL FOR STRESS PERIOD   45   TIME STEP   15
 
 SOLVING FOR HEAD 
                                                   Max.-Head-Change                         Max.-Flux-Residual
  Residual-Control   Outer-Iter.   Inner-Iter.     Column Row Layer    Maximum-Head-Change  Column Row Layer    Maximum-Flux-Residual          L2-NORM 
          0                 1           2             5    6     1       0.6874964615E-01       5    8    1         0.3730912631E+01      0.9262075446E+01
          0                 2           2             5    6     1      -0.4596182557E-01       5    8    1        -0.2532333890E+01      0.6152187681E+01
          0                 3           2             4    7     1       0.3377981066E-01       5    8    1         0.1870596041E+01      0.4589491809E+01
          0                 4           2             7   13     1      -0.1376068099E-02       7   13    1        -0.7669472209E-01      0.2040410529E+00
          0                 5           1             7   13     1       0.9367461888E-04       7   13    1         0.5366092486E-02      0.5968918471E-02

    ------------------------------------------------
       NWT REQUIRED            5 OUTER ITERATIONS 
       AND A TOTAL OF          9 INNER ITERATIONS.
    ------------------------------------------------

 NO OUTPUT CONTROL FOR STRESS PERIOD   45   TIME STEP   16
 
 SOLVING FOR HEAD 
                                                   Max.-Head-Change                         Max.-Flux-Residual
  Residual-Control   Outer-Iter.   Inner-Iter.     Column Row Layer    Maximum-Head-Change  Column Row Layer    Maximum-Flux-Residual          L2-NORM 
          0                 1           2             5    6     1       0.6621320849E-01       5    6    1         0.3586169591E+01      0.8990367060E+01
          0                 2           2             4    7     1      -0.1674507029E+00       5    6    1        -0.9071371199E+01      0.2216652063E+02
          0                 3           2             4    7     1       0.1140263125E-01       5    6    1         0.6349800031E+00      0.1553120597E+01
          0                 4           2             4    7     1      -0.4537220354E-03       5    6    1        -0.2596985072E-01      0.6363387255E-01
          0                 5           1             4    7     1       0.5594588369E-05       5    6    1         0.3290568752E-03      0.8273847999E-03

    ------------------------------------------------
       NWT REQUIRED            5 OUTER ITERATIONS 
       AND A TOTAL OF          9 INNER ITERATIONS.
    ------------------------------------------------

 NO OUTPUT CONTROL FOR STRESS PERIOD   45   TIME STEP   17
 
 SOLVING FOR HEAD 
                                                   Max.-Head-Change                         Max.-Flux-Residual
  Residual-Control   Outer-Iter.   Inner-Iter.     Column Row Layer    Maximum-Head-Change  Column Row Layer    Maximum-Flux-Residual          L2-NORM 
          0                 1           2             5    6     1       0.6805357094E-01       5    8    1         0.3689318561E+01      0.9205966025E+01
          0                 2           2             5    6     1      -0.4589335820E-01       5    8    1        -0.2528128356E+01      0.6149890156E+01
          0                 3           2             4    7     1       0.3378649643E-01       5    8    1         0.1870347909E+01      0.4589485884E+01
          0                 4           2             7   13     1      -0.1371318756E-02       5    6    1        -0.7648157654E-01      0.2039399981E+00
          0                 5           1             7   13     1       0.9335321438E-04       7   13    1         0.5347684095E-02      0.5952406488E-02

    ------------------------------------------------
       NWT REQUIRED            5 OUTER ITERATIONS 
       AND A TOTAL OF          9 INNER ITERATIONS.
    ------------------------------------------------

 NO OUTPUT CONTROL FOR STRESS PERIOD   45   TIME STEP   18
 
 SOLVING FOR HEAD 
                                                   Max.-Head-Change                         Max.-Flux-Residual
  Residual-Control   Outer-Iter.   Inner-Iter.     Column Row Layer    Maximum-Head-Change  Column Row Layer    Maximum-Flux-Residual          L2-NORM 
          0                 1           2             5    6     1       0.6557445779E-01       5    6    1         0.3549992034E+01      0.8940711376E+01
          0                 2           2             4    7     1      -0.1675307561E+00       5    6    1        -0.9067661058E+01      0.2216481254E+02
          0                 3           2             4    7     1       0.1140808115E-01       5    6    1         0.6347174660E+00      0.1552983587E+01
          0                 4           2             4    7     1      -0.4539388987E-03       5    6    1        -0.2595883824E-01      0.6362691471E-01
          0                 5           1             4    7     1       0.5597262051E-05       5    6    1         0.3288986604E-03      0.8271117349E-03

    ------------------------------------------------
       NWT REQUIRED            5 OUTER ITERATIONS 
       AND A TOTAL OF          9 INNER ITERATIONS.
    ------------------------------------------------

 NO OUTPUT CONTROL FOR STRESS PERIOD   45   TIME STEP   19
 
 SOLVING FOR HEAD 
                                                   Max.-Head-Change                         Max.-Flux-Residual
  Residual-Control   Outer-Iter.   Inner-Iter.     Column Row Layer    Maximum-Head-Change  Column Row Layer    Maximum-Flux-Residual          L2-NORM 
          0                 1           2             5    6     1       0.6746776923E-01       5    8    1         0.3654577036E+01      0.9159586534E+01
          0                 2           2             5    7     1      -0.4586088526E-01       5    8    1        -0.2524667668E+01      0.6148309051E+01
          0                 3           2             4    7     1       0.3379162906E-01       5    8    1         0.1870091983E+01      0.4589378227E+01
          0                 4           2             7   13     1      -0.1366743304E-02       5    6    1        -0.7647136568E-01      0.2038404705E+00
          0                 5           1             7   13     1       0.9303981644E-04       7   13    1         0.5329739578E-02      0.5936146659E-02

    ------------------------------------------------
       NWT REQUIRED            5 OUTER ITERATIONS 
       AND A TOTAL OF          9 INNER ITERATIONS.
    ------------------------------------------------

 NO OUTPUT CONTROL FOR STRESS PERIOD   45   TIME STEP   20
 
 SOLVING FOR HEAD 
                                                   Max.-Head-Change                         Max.-Flux-Residual
  Residual-Control   Outer-Iter.   Inner-Iter.     Column Row Layer    Maximum-Head-Change  Column Row Layer    Maximum-Flux-Residual          L2-NORM 
          0                 1           2             5    6     1       0.6503830110E-01       5    6    1         0.3519543942E+01      0.8899996659E+01
          0                 2           2             4    7     1      -0.1676056099E+00       5    6    1        -0.9064644014E+01      0.2216387896E+02
          0                 3           2             4    7     1       0.1141317714E-01       5    6    1         0.6345037423E+00      0.1552901836E+01
          0                 4           2             4    7     1      -0.4541416790E-03       5    6    1        -0.2594985116E-01      0.6362229087E-01
          0                 5           1             4    7     1       0.5599762334E-05       5    6    1         0.3287680825E-03      0.8268818786E-03

    ------------------------------------------------
       NWT REQUIRED            5 OUTER ITERATIONS 
       AND A TOTAL OF          9 INNER ITERATIONS.
    ------------------------------------------------

 NO OUTPUT CONTROL FOR STRESS PERIOD   45   TIME STEP   21
 
 SOLVING FOR HEAD 
                                                   Max.-Head-Change                         Max.-Flux-Residual
  Residual-Control   Outer-Iter.   Inner-Iter.     Column Row Layer    Maximum-Head-Change  Column Row Layer    Maximum-Flux-Residual          L2-NORM 
          0                 1           2             5    6     1       0.6697760367E-01       5    8    1         0.3625731475E+01      0.9121605658E+01
          0                 2           2             5    7     1      -0.4586580968E-01       5    8    1        -0.2521779398E+01      0.6147183087E+01
          0                 3           2             4    7     1       0.3379658291E-01       5    8    1         0.1869893948E+01      0.4589341406E+01
          0                 4           2             7   13     1      -0.1362334763E-02       5    6    1        -0.7646338194E-01      0.2037464684E+00
          0                 5           1             7   13     1       0.9274040947E-04       7   13    1         0.5312594926E-02      0.5920917429E-02

    ------------------------------------------------
       NWT REQUIRED            5 OUTER ITERATIONS 
       AND A TOTAL OF          9 INNER ITERATIONS.
    ------------------------------------------------

 NO OUTPUT CONTROL FOR STRESS PERIOD   45   TIME STEP   22
 
 SOLVING FOR HEAD 
                                                   Max.-Head-Change                         Max.-Flux-Residual
  Residual-Control   Outer-Iter.   Inner-Iter.     Column Row Layer    Maximum-Head-Change  Column Row Layer    Maximum-Flux-Residual          L2-NORM 
          0                 1           2             5    6     1       0.6459124920E-01       5    6    1         0.3494069885E+01      0.8866973704E+01
          0                 2           2             4    7     1      -0.1676732066E+00       5    6    1        -0.9062088125E+01      0.2216327598E+02
          0                 3           2             4    7     1       0.1141777909E-01       5    6    1         0.6343225590E+00      0.1552843542E+01
          0                 4           2             4    7     1      -0.4543248000E-03       5    6    1        -0.2594222036E-01      0.6361874997E-01
          0                 5           1             4    7     1       0.5602020441E-05       5    6    1         0.3286563906E-03      0.8266565426E-03

    ------------------------------------------------
       NWT REQUIRED            5 OUTER ITERATIONS 
       AND A TOTAL OF          9 INNER ITERATIONS.
    ------------------------------------------------

 NO OUTPUT CONTROL FOR STRESS PERIOD   45   TIME STEP   23
 
 SOLVING FOR HEAD 
                                                   Max.-Head-Change                         Max.-Flux-Residual
  Residual-Control   Outer-Iter.   Inner-Iter.     Column Row Layer    Maximum-Head-Change  Column Row Layer    Maximum-Flux-Residual          L2-NORM 
          0                 1           2             5    6     1       0.6657034975E-01       5    6    1         0.3602432105E+01      0.9090852910E+01
          0                 2           2             5    7     1      -0.4587166172E-01       5    6    1        -0.2519450404E+01      0.6146499843E+01
          0                 3           2             4    7     1       0.3380102133E-01       5    6    1         0.1869729630E+01      0.4589318722E+01
          0                 4           2             7   13     1      -0.1358058599E-02       5    6    1        -0.7645653119E-01      0.2036562177E+00
          0                 5           1             7   13     1       0.9244894090E-04       7   13    1         0.5295903410E-02      0.5906021761E-02

    ------------------------------------------------
       NWT REQUIRED            5 OUTER ITERATIONS 
       AND A TOTAL OF          9 INNER ITERATIONS.
    ------------------------------------------------

 NO OUTPUT CONTROL FOR STRESS PERIOD   45   TIME STEP   24
 
 SOLVING FOR HEAD 
                                                   Max.-Head-Change                         Max.-Flux-Residual
  Residual-Control   Outer-Iter.   Inner-Iter.     Column Row Layer    Maximum-Head-Change  Column Row Layer    Maximum-Flux-Residual          L2-NORM 
          0                 1           2             5    6     1       0.6422139628E-01       5    6    1         0.3472903269E+01      0.8840589303E+01
          0                 2           2             4    7     1      -0.1677351855E+00       5    6    1        -0.9059973461E+01      0.2216306415E+02
          0                 3           2             4    7     1       0.1142199860E-01       5    6    1         0.6341724864E+00      0.1552812905E+01
          0                 4           2             4    7     1      -0.4544927040E-03       5    6    1        -0.2593588391E-01      0.6361615659E-01
          0                 5           1             4    7     1       0.5604090924E-05       5    6    1         0.3285626099E-03      0.8264588635E-03

    ------------------------------------------------
       NWT REQUIRED            5 OUTER ITERATIONS 
       AND A TOTAL OF          9 INNER ITERATIONS.
    ------------------------------------------------

 NO OUTPUT CONTROL FOR STRESS PERIOD   45   TIME STEP   25
 
 SOLVING FOR HEAD 
                                                   Max.-Head-Change                         Max.-Flux-Residual
  Residual-Control   Outer-Iter.   Inner-Iter.     Column Row Layer    Maximum-Head-Change  Column Row Layer    Maximum-Flux-Residual          L2-NORM 
          0                 1           2             5    6     1       0.6623515238E-01       5    6    1         0.3583197875E+01      0.9066347158E+01
          0                 2           2             5    7     1      -0.4587836922E-01       5    6    1        -0.2517527071E+01      0.6146188489E+01
          0                 3           2             4    7     1       0.3380511232E-01       5    6    1         0.1869595324E+01      0.4589323040E+01
          0                 4           2             7   13     1      -0.1353930973E-02       5    6    1        -0.7645090846E-01      0.2035699837E+00
          0                 5           1             7   13     1       0.9216781704E-04       7   13    1         0.5279804116E-02      0.5890788825E-02

    ------------------------------------------------
       NWT REQUIRED            5 OUTER ITERATIONS 
       AND A TOTAL OF          9 INNER ITERATIONS.
    ------------------------------------------------

 NO OUTPUT CONTROL FOR STRESS PERIOD   45   TIME STEP   26
 
 SOLVING FOR HEAD 
                                                   Max.-Head-Change                         Max.-Flux-Residual
  Residual-Control   Outer-Iter.   Inner-Iter.     Column Row Layer    Maximum-Head-Change  Column Row Layer    Maximum-Flux-Residual          L2-NORM 
          0                 1           2             5    6     1       0.6391868625E-01       5    6    1         0.3455480876E+01      0.8819931672E+01
          0                 2           2             4    7     1      -0.1677920092E+00       5    6    1        -0.9058231304E+01      0.2216316627E+02
          0                 3           2             4    7     1       0.1142586718E-01       5    6    1         0.6340486828E+00      0.1552804423E+01
          0                 4           2             4    7     1      -0.4546466421E-03       5    6    1        -0.2593064076E-01      0.6361462360E-01
          0                 5           1             4    7     1       0.5605989015E-05       5    6    1         0.3284839854E-03      0.8262741105E-03

    ------------------------------------------------
       NWT REQUIRED            5 OUTER ITERATIONS 
       AND A TOTAL OF          9 INNER ITERATIONS.
    ------------------------------------------------

 NO OUTPUT CONTROL FOR STRESS PERIOD   45   TIME STEP   27
 
 SOLVING FOR HEAD 
                                                   Max.-Head-Change                         Max.-Flux-Residual
  Residual-Control   Outer-Iter.   Inner-Iter.     Column Row Layer    Maximum-Head-Change  Column Row Layer    Maximum-Flux-Residual          L2-NORM 
          0                 1           2             5    6     1       0.6596237989E-01       5    6    1         0.3567444950E+01      0.9047244451E+01
          0                 2           2             5    7     1      -0.4588597833E-01       5    6    1        -0.2515951862E+01      0.6146202532E+01
          0                 3           2             4    7     1       0.3380886841E-01       5    6    1         0.1869485058E+01      0.4589346562E+01
          0                 4           2             7   13     1      -0.1349933596E-02       5    6    1        -0.7644628137E-01      0.2034877893E+00
          0                 5           1             7   13     1       0.9189626135E-04       7   13    1         0.5264254340E-02      0.5877268510E-02

    ------------------------------------------------
       NWT REQUIRED            5 OUTER ITERATIONS 
       AND A TOTAL OF          9 INNER ITERATIONS.
    ------------------------------------------------

 NO OUTPUT CONTROL FOR STRESS PERIOD   45   TIME STEP   28
 
 SOLVING FOR HEAD 
                                                   Max.-Head-Change                         Max.-Flux-Residual
  Residual-Control   Outer-Iter.   Inner-Iter.     Column Row Layer    Maximum-Head-Change  Column Row Layer    Maximum-Flux-Residual          L2-NORM 
          0                 1           2             5    6     1       0.6367416697E-01       5    6    1         0.3441303397E+01      0.8804242636E+01
          0                 2           2             4    7     1      -0.1678443109E+00       5    6    1        -0.9056813632E+01      0.2216354589E+02
          0                 3           2             4    7     1       0.1142942792E-01       5    6    1         0.6339477642E+00      0.1552815831E+01
          0                 4           2             4    7     1      -0.4547883315E-03       5    6    1        -0.2592635029E-01      0.6361388018E-01
          0                 5           1             4    7     1       0.5607736223E-05       5    6    1         0.3284185464E-03      0.8261490092E-03

    ------------------------------------------------
       NWT REQUIRED            5 OUTER ITERATIONS 
       AND A TOTAL OF          9 INNER ITERATIONS.
    ------------------------------------------------

 NO OUTPUT CONTROL FOR STRESS PERIOD   45   TIME STEP   29
 
 SOLVING FOR HEAD 
                                                   Max.-Head-Change                         Max.-Flux-Residual
  Residual-Control   Outer-Iter.   Inner-Iter.     Column Row Layer    Maximum-Head-Change  Column Row Layer    Maximum-Flux-Residual          L2-NORM 
          0                 1           2             5    6     1       0.6574402781E-01       5    6    1         0.3554725658E+01      0.9032833524E+01
          0                 2           2             5    7     1      -0.4589446249E-01       5    6    1        -0.2514680009E+01      0.6146499690E+01
          0                 3           2             4    7     1       0.3381233222E-01       5    6    1         0.1869396027E+01      0.4589387725E+01
          0                 4           2             7   13     1      -0.1346060979E-02       5    6    1        -0.7644253352E-01      0.2034087816E+00
          0                 5           1             7   13     1       0.9163272004E-04       7   13    1         0.5249160648E-02      0.5863783708E-02

    ------------------------------------------------
       NWT REQUIRED            5 OUTER ITERATIONS 
       AND A TOTAL OF          9 INNER ITERATIONS.
    ------------------------------------------------

 NO OUTPUT CONTROL FOR STRESS PERIOD   45   TIME STEP   30



 STREAM LISTING     PERIOD     45   STEP       30

 LAYER ROW COL. STREAM  RCH.  FLOW INTO     FLOW TO   FLOW OUT OF   OVRLND.     DIRECT     STREAM       STREAM     STREAM     STREAM   STREAMBED  STREAMBED
                SEG.NO.  NO.  STRM. RCH.    AQUIFER    STRM. RCH.    RUNOFF     PRECIP       ET          HEAD       DEPTH      WIDTH   CONDCTNC.   GRADIENT

   1    1    1     1     1    2.7749E+01  2.5751E-01   2.7492E+01  0.000E+00  0.000E+00  0.000E+00  1.09427E+03  1.218E+00  1.357E+01  6.105E-02  1.406E+00
   1    2    2     1     2    2.7492E+01  3.9832E-01   2.7093E+01  0.000E+00  0.000E+00  0.000E+00  1.08927E+03  1.213E+00  1.351E+01  9.454E-02  1.404E+00
   1    3    3     1     3    2.7093E+01  3.3923E-01   2.6754E+01  0.000E+00  0.000E+00  0.000E+00  1.08363E+03  1.208E+00  1.344E+01  8.062E-02  1.403E+00
   1    3    4     1     4    2.6754E+01  3.1200E-01   2.6442E+01  0.000E+00  0.000E+00  0.000E+00  1.07861E+03  1.203E+00  1.337E+01  7.422E-02  1.401E+00
   1    4    5     2     1    2.4442E+01  3.2655E-01   2.4116E+01  0.000E+00  0.000E+00  0.000E+00  1.07312E+03  1.187E+00  1.200E+01  7.800E-02  1.396E+00
   1    5    6     2     2    2.4116E+01  2.5068E-01   2.3865E+01  0.000E+00  0.000E+00  0.000E+00  1.06769E+03  1.178E+00  1.200E+01  6.000E-02  1.393E+00
   1    6    6     2     3    2.3865E+01  2.5024E-01   2.3615E+01  0.000E+00  0.000E+00  0.000E+00  1.06296E+03  1.171E+00  1.200E+01  6.000E-02  1.390E+00
   1    7    6     2     4    2.3615E+01  2.4979E-01   2.3365E+01  0.000E+00  0.000E+00  0.000E+00  1.05824E+03  1.163E+00  1.200E+01  6.000E-02  1.388E+00
   1    8    6     2     5    2.3365E+01  2.4935E-01   2.3115E+01  0.000E+00  0.000E+00  0.000E+00  1.05351E+03  1.156E+00  1.200E+01  6.000E-02  1.385E+00
   1    3    5     3     1    2.0000E+00  2.8252E-01   1.7175E+00  0.000E+00  0.000E+00  0.000E+00  1.07555E+03  1.909E+00  9.636E+00  7.227E-02  1.955E+00
   1    3    6     3     2    1.7175E+00  2.4905E-01   1.4684E+00  0.000E+00  0.000E+00  0.000E+00  1.07264E+03  1.727E+00  8.909E+00  6.682E-02  1.864E+00
   1    3    7     3     3    1.4684E+00  1.9718E-01   1.2712E+00  0.000E+00  0.000E+00  0.000E+00  1.06987E+03  1.555E+00  8.218E+00  5.547E-02  1.777E+00
   1    4    8     3     4    1.2712E+00  2.2567E-01   1.0456E+00  0.000E+00  0.000E+00  0.000E+00  1.06682E+03  1.364E+00  7.455E+00  6.709E-02  1.682E+00
   1    5    8     3     5    1.0456E+00  1.5790E-01   8.8768E-01  0.000E+00  0.000E+00  0.000E+00  1.06362E+03  1.164E+00  6.655E+00  4.991E-02  1.582E+00
   1    6    8     3     6    8.8768E-01  5.5980E-02   8.3170E-01  0.000E+00  0.000E+00  0.000E+00  1.06158E+03  1.036E+00  6.145E+00  1.844E-02  1.518E+00
   1    5   10     4     1    1.0000E+01  9.0919E-02   9.9091E+00  0.000E+00  0.000E+00  0.000E+00  1.07836E+03  6.368E-01  1.000E+01  2.500E-02  1.212E+00
   1    5    9     4     2    9.9091E+00  1.8158E-01   9.7275E+00  0.000E+00  0.000E+00  0.000E+00  1.07154E+03  6.315E-01  1.000E+01  5.000E-02  1.211E+00
   1    6    8     4     3    9.7275E+00  1.2689E-01   9.6006E+00  0.000E+00  0.000E+00  0.000E+00  1.06381E+03  6.256E-01  1.000E+01  3.500E-02  1.209E+00
   1    6    8     5     1    1.0432E+01  2.2686E-01   1.0205E+01  0.000E+00  0.000E+00  0.000E+00  1.05868E+03  6.790E-01  1.542E+01  6.166E-02  1.226E+00
   1    7    7     5     2    1.0205E+01  2.7894E-01   9.9265E+00  0.000E+00  0.000E+00  0.000E+00  1.05417E+03  6.732E-01  1.519E+01  7.594E-02  1.224E+00
   1    8    7     5     3    9.9265E+00  1.9221E-01   9.7343E+00  0.000E+00  0.000E+00  0.000E+00  1.04992E+03  6.676E-01  1.497E+01  5.241E-02  1.223E+00
   1    8    6     5     4    9.7343E+00  1.3577E-01   9.5985E+00  0.000E+00  0.000E+00  0.000E+00  1.04691E+03  6.637E-01  1.482E+01  3.706E-02  1.221E+00
   1    9    6     6     1    9.5985E+00  2.2097E-01   9.3776E+00  0.000E+00  0.000E+00  0.000E+00  1.04341E+03  6.828E-01  1.200E+01  6.000E-02  1.228E+00
   1   10    7     6     2    9.3776E+00  2.2039E-01   9.1572E+00  0.000E+00  0.000E+00  0.000E+00  1.03885E+03  6.732E-01  1.200E+01  6.000E-02  1.224E+00
   1   11    7     6     3    9.1572E+00  2.1981E-01   8.9374E+00  0.000E+00  0.000E+00  0.000E+00  1.03430E+03  6.636E-01  1.200E+01  6.000E-02  1.221E+00
   1   12    7     6     4    8.9374E+00  2.1923E-01   8.7181E+00  0.000E+00  0.000E+00  0.000E+00  1.02974E+03  6.539E-01  1.200E+01  6.000E-02  1.218E+00
   1   13    7     6     5    8.7181E+00 -8.3205E-02   8.8013E+00  0.000E+00  0.000E+00  0.000E+00  1.02656E+03  6.508E-01  1.200E+01  2.400E-01 -1.156E-01
   1   14    9     7     1    1.5000E+02  1.3536E+00   1.4865E+02  0.000E+00  0.000E+00  0.000E+00  1.03987E+03  2.288E+00  5.529E+01  5.593E-01  8.067E-01
   1   13    8     7     2    1.4865E+02  1.8845E+00   1.4676E+02  0.000E+00  0.000E+00  0.000E+00  1.03478E+03  2.279E+00  5.526E+01  6.148E-01  1.022E+00
   1   13    7     7     3    1.4676E+02  1.5539E+00   1.4521E+02  0.000E+00  0.000E+00  0.000E+00  1.02969E+03  2.270E+00  5.521E+01  5.584E-01  9.275E-01
   1   13    6     8     1    1.5401E+02  9.0694E-01   1.5310E+02  0.000E+00  0.000E+00  0.000E+00  1.02472E+03  2.842E+00  4.120E+01  4.199E-01  7.200E-01
   1   13    5     8     2    1.5310E+02  1.7487E-01   1.5293E+02  0.000E+00  0.000E+00  0.000E+00  1.01846E+03  2.838E+00  4.115E+01  4.193E-01  1.390E-01
   1   13    4     8     3    1.5293E+02 -2.4119E+00   1.5534E+02  0.000E+00  0.000E+00  0.000E+00  1.01222E+03  2.846E+00  4.126E+01  4.205E+00 -1.912E-01
   1   13    3     8     4    1.5534E+02 -3.6245E+00   1.5896E+02  0.000E+00  0.000E+00  0.000E+00  1.00599E+03  2.866E+00  4.156E+01  4.235E+00 -2.852E-01
   1   13    2     8     5    1.5896E+02 -2.5789E+00   1.6154E+02  0.000E+00  0.000E+00  0.000E+00  9.99763E+02  2.888E+00  4.187E+01  4.267E+00 -2.015E-01
   1   13    1     8     6    1.6154E+02 -1.9926E+00   1.6354E+02  0.000E+00  0.000E+00  0.000E+00  9.94778E+02  2.903E+00  4.209E+01  2.574E+00 -2.581E-01
   1    8    6     9     1    2.3115E+01  0.0000E+00   2.3115E+01  0.000E+00  0.000E+00  0.000E+00  1.08250E+03  3.746E+00  4.000E+00  0.000E+00  2.249E+00
   1    8    5     9     2    2.3115E+01  0.0000E+00   2.3115E+01  0.000E+00  0.000E+00  0.000E+00  1.08200E+03  3.746E+00  4.000E+00  0.000E+00  2.249E+00





UNSATURATED ZONE PACKAGE VOLUMETRIC BUDGET FOR  TIME STEP    30 STRESS PERIOD   45
  ------------------------------------------------------------------------------



     CUMULATIVE VOLUMES      L**3       RATES FOR THIS TIME STEP      L**3/T
     ------------------                 ------------------------

           IN:                                      IN:
           ---                                      ---
        INFILTRATION =  2398266260.4646          INFILTRATION =          30.3185

          OUT:                                     OUT:
          ----                                     ----
              UZF ET =  1932670173.1924                UZF ET =          52.9209
        UZF RECHARGE =    79902034.3175          UZF RECHARGE =       0.0000E+00

            IN - OUT =   385694052.9547              IN - OUT =         -22.6024

          STORAGE:                                 STORAGE:
          --------                                 --------
      STORAGE CHANGE =   385695560.2642        STORAGE CHANGE =         -22.6024

 PERCENT DISCREPANCY IS DIFFERENCE BETWEEN IN-OUT MINUS CHANGE IN STORAGE
 DIVIDED BY THE AVERAGE OF IN AND OUT TIMES 100

 PERCENT DISCREPANCY =          -0.00     PERCENT DISCREPANCY =           0.00






1
  VOLUMETRIC BUDGET FOR AGRICULTURAL FIELDS AT  END OF TIME STEP   30, STRESS PERIOD  45
  ------------------------------------------------------------------------------

     CUMULATIVE VOLUMES      L**3       RATES FOR THIS TIME STEP      L**3/T
     ------------------                 ------------------------

           IN:                                      IN:
           ---                                      ---
               AG WELLS  =   730117952.0000                 AG WELLS  =           2.7951
      DIVERSION SEGMENTS =  1158520704.0000        DIVERSION SEGMENTS =          23.1155
           GW IRRIGATION =           0.0000             GW IRRIGATION =           0.0000
           SW IRRIGATION =           0.0000             SW IRRIGATION =           0.0000
        SYSTEM LOSSES GW =           0.0000          SYSTEM LOSSES GW =           0.0000
        SYSTEM LOSSES SW =           0.0000          SYSTEM LOSSES SW =           0.0000

                TOTAL IN =  1888638720.0000                  TOTAL IN =          25.9105

          OUT:                                     OUT:
          ----                                     ----
               AG WELLS  =           0.0000                 AG WELLS  =           0.0000
      DIVERSION SEGMENTS =           0.0000        DIVERSION SEGMENTS =           0.0000
           GW IRRIGATION =   730117952.0000             GW IRRIGATION =           2.7951
           SW IRRIGATION =  1158541184.0000             SW IRRIGATION =          23.1159
        SYSTEM LOSSES GW =           0.0000          SYSTEM LOSSES GW =           0.0000
        SYSTEM LOSSES SW =           0.0000          SYSTEM LOSSES SW =           0.0000

               TOTAL OUT =  1888659200.0000                 TOTAL OUT =          25.9110

                IN - OUT =      -20480.0000                  IN - OUT =      -4.6158E-04

     PERCENT DISCREPANCY =          -0.00         PERCENT DISCREPANCY =          -0.00



1
  VOLUMETRIC BUDGET FOR ENTIRE MODEL AT END OF TIME STEP   30, STRESS PERIOD  45
  ------------------------------------------------------------------------------

     CUMULATIVE VOLUMES      L**3       RATES FOR THIS TIME STEP      L**3/T
     ------------------                 ------------------------

           IN:                                      IN:
           ---                                      ---
             STORAGE     =  1113711360.0000               STORAGE     =          18.5917
       CONSTANT HEAD     =           0.0000         CONSTANT HEAD     =           0.0000
     HEAD DEP BOUNDS     =    33133474.0000       HEAD DEP BOUNDS     =           0.2870
      STREAM LEAKAGE     =  1398162176.0000        STREAM LEAKAGE     =          11.7893
        UZF RECHARGE     =    79902024.0000          UZF RECHARGE     =           0.0000
               GW ET     =           0.0000                 GW ET     =           0.0000
     SURFACE LEAKAGE     =           0.0000       SURFACE LEAKAGE     =           0.0000
           AG WELLS      =           0.0000             AG WELLS      =           0.0000

                TOTAL IN =  2624909056.0000                  TOTAL IN =          30.6680

          OUT:                                     OUT:
          ----                                     ----
             STORAGE     =   624835072.0000               STORAGE     =          16.8950
       CONSTANT HEAD     =           0.0000         CONSTANT HEAD     =           0.0000
     HEAD DEP BOUNDS     =    33672644.0000       HEAD DEP BOUNDS     =           0.2870
      STREAM LEAKAGE     =  1233427200.0000        STREAM LEAKAGE     =          10.6911
        UZF RECHARGE     =           0.0000          UZF RECHARGE     =           0.0000
               GW ET     =     2857194.5000                 GW ET     =           0.0000
     SURFACE LEAKAGE     =           0.0000       SURFACE LEAKAGE     =           0.0000
           AG WELLS      =   730117952.0000             AG WELLS      =           2.7951

               TOTAL OUT =  2624910080.0000                 TOTAL OUT =          30.6681

                IN - OUT =       -1024.0000                  IN - OUT =      -9.1553E-05

     PERCENT DISCREPANCY =          -0.00         PERCENT DISCREPANCY =          -0.00






         TIME SUMMARY AT END OF TIME STEP   30 IN STRESS PERIOD   45
                    SECONDS     MINUTES      HOURS       DAYS        YEARS
                    -----------------------------------------------------------
   TIME STEP LENGTH  87667.      1461.1      24.352      1.0147     2.77799E-03
 STRESS PERIOD TIME 2.63000E+06  43833.      730.56      30.440     8.33397E-02
         TOTAL TIME 1.15805E+08 1.93009E+06  32168.      1340.3      3.6696    
1
1
                            STRESS PERIOD NO.   46, LENGTH =   2630000.    
                            -----------------------------------------------

                              NUMBER OF TIME STEPS =    30

                               MULTIPLIER FOR DELT =     1.000

                            INITIAL TIME STEP SIZE =   87666.66    

 REUSING NON-PARAMETER GHB CELLS FROM LAST STRESS PERIOD

      2 GHB CELLS

 REUSING STREAM SEGMENT DATA FROM LAST STRESS PERIOD



            AREAL INFILTRATION RATE
 READING ON UNIT   19 WITH FORMAT: (10F4.0)            

            1           2           3           4           5           6           7           8           9          10
 ........................................................................................................................
   1   1.2000E-09   0.000       0.000       0.000       0.000       0.000       0.000       0.000       0.000       0.000    
   2   2.1000E-09  2.0000E-09  8.0000E-10  8.5000E-09   0.000       0.000       0.000       0.000       0.000       0.000    
   3   5.0000E-10  1.1000E-09  8.8000E-09  5.5000E-09   0.000       0.000       0.000       0.000       0.000       0.000    
   4   8.5000E-09  1.1000E-09  1.1000E-09  1.1000E-09  2.0000E-09   0.000       0.000       0.000       0.000       0.000    
   5   8.5000E-09  1.1000E-09  1.1000E-09  1.1000E-09  1.1000E-09   0.000       0.000       0.000       0.000       0.000    
   6   8.5000E-09  5.2000E-09  2.1000E-09  1.1000E-09  1.5000E-09   0.000       0.000       0.000       0.000       0.000    
   7   8.5000E-09  5.2000E-09  2.1000E-09  1.2000E-09  2.0000E-09   0.000       0.000       0.000       0.000       0.000    
   8   5.0000E-10  5.2000E-09  2.1000E-09  1.2000E-09  5.0000E-09   0.000       0.000       0.000       0.000       0.000    
   9   5.0000E-10  5.2000E-09  2.1000E-09  1.2000E-09  5.0000E-09   0.000       0.000       0.000       0.000       0.000    
  10   5.0000E-10  5.2000E-09  2.1000E-09  1.2000E-09  5.8000E-09   0.000       0.000       0.000       0.000       0.000    
  11   1.0000E-10  1.1000E-09  1.1000E-09  1.2000E-09  5.0000E-09   0.000       0.000       0.000       0.000       0.000    
  12   1.1000E-09  1.1000E-09  1.1000E-09  1.1000E-09  2.0000E-09   0.000       0.000       0.000       0.000       0.000    
  13   1.1000E-09  2.2000E-09  2.2000E-09  2.1000E-09  1.0000E-09   0.000       0.000       0.000       0.000       0.000    
  14   2.0000E-10  5.5000E-09  5.5000E-09  5.2000E-09  1.0000E-09   0.000       0.000       0.000       0.000       0.000    
  15    0.000      8.8000E-09  8.8000E-09   0.000       0.000       0.000       0.000       0.000       0.000       0.000    

                  ET RATE =  7.500000E-08

 USING ET EXTINCTION DEPTH FROM PREVIOUS STRESS PERIOD. CURRENT PERIOD IS:      46

 USING EXTINCTION WATER CONTENT FROM PREVIOUS STRESS PERIOD. CURRENT PERIOD IS:      46

 USING AIR ENTRY PRESSURE FROM PREVIOUS STRESS PERIOD. CURRENT PERIOD IS:      46

 USING ROOT PRESSURE HEAD FROM PREVIOUS STRESS PERIOD. CURRENT PERIOD IS:      46

 USING ROOT ACTIVITY FROM PREVIOUS STRESS PERIOD. CURRENT PERIOD IS:      46

 PROCESSING AG STRESS PERIOD DATA

 READING AG STRESS PERIOD DATA

 READING IRRIGATION SEGMENT

 READING IRRIGATION WELL

 READING SUPPLEMENTAL WELL

 END PROCESSING AG STRESS PERIOD DATA OPTIONS
 
 SOLVING FOR HEAD 
                                                   Max.-Head-Change                         Max.-Flux-Residual
  Residual-Control   Outer-Iter.   Inner-Iter.     Column Row Layer    Maximum-Head-Change  Column Row Layer    Maximum-Flux-Residual          L2-NORM 
          0                 1           2             5    6     1       0.6348026214E-01       5    6    1         0.3429947586E+01      0.8792838759E+01
          0                 2           2             5    6     1      -0.6768425469E-02       5    6    1        -0.3756246115E+00      0.9578789018E+00
          0                 3           2             5    6     1       0.1038348612E-02       5    6    1         0.5892775711E-01      0.1437514227E+00
          0                 4           1             5    6     1      -0.4131677920E-04       5    6    1        -0.2410148450E-02      0.5880406112E-02

    ------------------------------------------------
       NWT REQUIRED            4 OUTER ITERATIONS 
       AND A TOTAL OF          7 INNER ITERATIONS.
    ------------------------------------------------

 NO OUTPUT CONTROL FOR STRESS PERIOD   46   TIME STEP    1
 
 SOLVING FOR HEAD 
                                                   Max.-Head-Change                         Max.-Flux-Residual
  Residual-Control   Outer-Iter.   Inner-Iter.     Column Row Layer    Maximum-Head-Change  Column Row Layer    Maximum-Flux-Residual          L2-NORM 
          0                 1           2             5    6     1       0.6110567767E-01       5    6    1         0.3299181056E+01      0.8532087662E+01
          0                 2           2             4    7     1      -0.3953461208E-01       5    6    1        -0.2154914449E+01      0.5283265523E+01
          0                 3           2             4    7     1       0.3577159615E-01       5    6    1         0.1975844034E+01      0.4853843491E+01
          0                 4           2             4    7     1      -0.1423392596E-02       5    6    1        -0.8079421191E-01      0.2097960800E+00
          0                 5           1             7   13     1       0.7745752347E-04       7   13    1         0.4437567313E-02      0.5229428168E-02

    ------------------------------------------------
       NWT REQUIRED            5 OUTER ITERATIONS 
       AND A TOTAL OF          9 INNER ITERATIONS.
    ------------------------------------------------

 NO OUTPUT CONTROL FOR STRESS PERIOD   46   TIME STEP    2
 
 SOLVING FOR HEAD 
                                                   Max.-Head-Change                         Max.-Flux-Residual
  Residual-Control   Outer-Iter.   Inner-Iter.     Column Row Layer    Maximum-Head-Change  Column Row Layer    Maximum-Flux-Residual          L2-NORM 
          0                 1           2             5    8     1       0.2249568807E+00       5    8    1         0.1235658213E+02      0.1453525115E+02
          0                 2           2             5    8     1       0.1766356175E-01       5    8    1         0.9827978525E+00      0.1254174699E+01
          0                 3           2             5    8     1       0.1363394792E-02       5    8    1         0.7484011316E-01      0.9071367066E-01
          0                 4           1             5    8     1       0.9898392625E-04       5    8    1         0.5497468164E-02      0.6551833539E-02

    ------------------------------------------------
       NWT REQUIRED            4 OUTER ITERATIONS 
       AND A TOTAL OF          7 INNER ITERATIONS.
    ------------------------------------------------

 NO OUTPUT CONTROL FOR STRESS PERIOD   46   TIME STEP    3
 
 SOLVING FOR HEAD 
                                                   Max.-Head-Change                         Max.-Flux-Residual
  Residual-Control   Outer-Iter.   Inner-Iter.     Column Row Layer    Maximum-Head-Change  Column Row Layer    Maximum-Flux-Residual          L2-NORM 
          0                 1           2             5    7     1       0.6058021828E-01       5    7    1         0.3230226674E+01      0.7918032391E+01
          0                 2           2             4    7     1      -0.3948909977E-01       5    7    1        -0.2148023938E+01      0.5069806609E+01
          0                 3           2             4    7     1       0.1322278546E-01       5    7    1         0.7316349800E+00      0.1687039835E+01
          0                 4           2             5    8     1       0.9321615194E-03       5    8    1         0.5534378664E-01      0.8719807560E-01
          0                 5           1             5    8     1       0.1197722739E-03       5    8    1         0.6979859766E-02      0.7042394777E-02
          0                 6           1             5    8     1       0.1538838972E-04       5    8    1         0.8979069476E-03      0.8981294639E-03

    ------------------------------------------------
       NWT REQUIRED            6 OUTER ITERATIONS 
       AND A TOTAL OF         10 INNER ITERATIONS.
    ------------------------------------------------

 NO OUTPUT CONTROL FOR STRESS PERIOD   46   TIME STEP    4
 
 SOLVING FOR HEAD 
                                                   Max.-Head-Change                         Max.-Flux-Residual
  Residual-Control   Outer-Iter.   Inner-Iter.     Column Row Layer    Maximum-Head-Change  Column Row Layer    Maximum-Flux-Residual          L2-NORM 
          0                 1           2             5    8     1       0.2254927413E+00       5    8    1         0.1237742310E+02      0.1443238920E+02
          0                 2           2             5    8     1       0.1776954597E-01       5    8    1         0.9888260875E+00      0.1246751926E+01
          0                 3           2             5    8     1       0.1435758258E-02       5    8    1         0.7863179119E-01      0.9693779884E-01
          0                 4           1             5    8     1       0.7569570658E-04       5    8    1         0.4262309965E-02      0.8041098501E-02

    ------------------------------------------------
       NWT REQUIRED            4 OUTER ITERATIONS 
       AND A TOTAL OF          7 INNER ITERATIONS.
    ------------------------------------------------

 NO OUTPUT CONTROL FOR STRESS PERIOD   46   TIME STEP    5
 
 SOLVING FOR HEAD 
                                                   Max.-Head-Change                         Max.-Flux-Residual
  Residual-Control   Outer-Iter.   Inner-Iter.     Column Row Layer    Maximum-Head-Change  Column Row Layer    Maximum-Flux-Residual          L2-NORM 
          0                 1           2             5    7     1       0.6131514249E-01       5    7    1         0.3268203403E+01      0.7790270905E+01
          0                 2           2             4    7     1      -0.3945280998E-01       5    7    1        -0.2151821889E+01      0.4834304619E+01
          0                 3           2             4    7     1       0.1321973523E-01       5    7    1         0.7319009134E+00      0.1656872529E+01
          0                 4           2             5    8     1       0.2195068135E-02       5    8    1         0.1289676902E+00      0.1454961829E+00
          0                 5           1             5    8     1       0.1034816982E-02       5    8    1         0.6035667447E-01      0.6036439755E-01
          0                 6           1             5    8     1       0.4878366725E-03       5    8    1         0.2845758871E-01      0.2845771922E-01
          0                 7           1             5    8     1       0.2299750201E-03       5    8    1         0.1341537528E-01      0.1341542839E-01
          0                 8           1             5    8     1       0.1084132114E-03       5    8    1         0.6324121531E-02      0.6324146390E-02
          0                 9           1             5    8     1       0.5110684572E-04       5    8    1         0.2981212417E-02      0.2981224137E-02

    ------------------------------------------------
       NWT REQUIRED            9 OUTER ITERATIONS 
       AND A TOTAL OF         13 INNER ITERATIONS.
    ------------------------------------------------

 NO OUTPUT CONTROL FOR STRESS PERIOD   46   TIME STEP    6
 
 SOLVING FOR HEAD 
                                                   Max.-Head-Change                         Max.-Flux-Residual
  Residual-Control   Outer-Iter.   Inner-Iter.     Column Row Layer    Maximum-Head-Change  Column Row Layer    Maximum-Flux-Residual          L2-NORM 
          0                 1           2             5    8     1       0.1746207750E+00       5    8    1         0.9554333227E+01      0.1199225789E+02
          0                 2           2             5    8     1       0.1367743945E-01       5    8    1         0.7638266494E+00      0.1064278579E+01
          0                 3           2             5    8     1       0.1107452986E-02       5    8    1         0.6046146308E-01      0.8167293393E-01
          0                 4           1             4    7     1      -0.5882059247E-04       5    7    1        -0.3384984738E-02      0.8036444287E-02

    ------------------------------------------------
       NWT REQUIRED            4 OUTER ITERATIONS 
       AND A TOTAL OF          7 INNER ITERATIONS.
    ------------------------------------------------

 NO OUTPUT CONTROL FOR STRESS PERIOD   46   TIME STEP    7
 
 SOLVING FOR HEAD 
                                                   Max.-Head-Change                         Max.-Flux-Residual
  Residual-Control   Outer-Iter.   Inner-Iter.     Column Row Layer    Maximum-Head-Change  Column Row Layer    Maximum-Flux-Residual          L2-NORM 
          0                 1           2             5    8     1       0.1197522068E+00       5    8    1         0.6519312117E+01      0.9692743294E+01
          0                 2           2             4    7     1      -0.3940983336E-01       5    7    1        -0.2151813205E+01      0.4902189194E+01
          0                 3           2             5    8     1       0.1914417245E-01       5    8    1         0.1034487099E+01      0.1936952120E+01
          0                 4           2             5    8     1       0.8450145580E-02       5    8    1         0.4673709983E+00      0.4720811973E+00
          0                 5           1             5    8     1       0.3729846659E-02       5    8    1         0.2058755111E+00      0.2058815986E+00
          0                 6           1             5    8     1       0.1646333485E-02       5    8    1         0.9087422268E-01      0.9087576912E-01
          0                 7           1             5    8     1       0.7266824158E-03       5    8    1         0.4011142563E-01      0.4011209957E-01
          0                 8           1             5    8     1       0.3207535663E-03       5    8    1         0.1770496151E-01      0.1770525882E-01
          0                 9           1             5    8     1       0.1415788361E-03       5    8    1         0.7814871899E-02      0.7815003094E-02
          0                10           1             5    8     1       0.6249210913E-04       5    8    1         0.3449441036E-02      0.3449498947E-02

    ------------------------------------------------
       NWT REQUIRED           10 OUTER ITERATIONS 
       AND A TOTAL OF         14 INNER ITERATIONS.
    ------------------------------------------------

 NO OUTPUT CONTROL FOR STRESS PERIOD   46   TIME STEP    8
 
 SOLVING FOR HEAD 
                                                   Max.-Head-Change                         Max.-Flux-Residual
  Residual-Control   Outer-Iter.   Inner-Iter.     Column Row Layer    Maximum-Head-Change  Column Row Layer    Maximum-Flux-Residual          L2-NORM 
          0                 1           2             5    7     1       0.6208356089E-01       5    7    1         0.3332002748E+01      0.7261459705E+01
          0                 2           2             5    7     1      -0.6109353528E-02       5    7    1        -0.3402098680E+00      0.7397375845E+00
          0                 3           2             5    7     1       0.4771349608E-03       5    7    1         0.2702759059E-01      0.5876094876E-01
          0                 4           1             5    7     1      -0.3940683614E-04       5    7    1        -0.2293007360E-02      0.5071422328E-02

    ------------------------------------------------
       NWT REQUIRED            4 OUTER ITERATIONS 
       AND A TOTAL OF          7 INNER ITERATIONS.
    ------------------------------------------------

 NO OUTPUT CONTROL FOR STRESS PERIOD   46   TIME STEP    9
 
 SOLVING FOR HEAD 
                                                   Max.-Head-Change                         Max.-Flux-Residual
  Residual-Control   Outer-Iter.   Inner-Iter.     Column Row Layer    Maximum-Head-Change  Column Row Layer    Maximum-Flux-Residual          L2-NORM 
          0                 1           2             5    8     1       0.1812858797E+00       5    8    1         0.9913195081E+01      0.1212561205E+02
          0                 2           2             4    7     1      -0.3939257785E-01       5    7    1        -0.2147841079E+01      0.4800052022E+01
          0                 3           2             4    7     1       0.1321985709E-01       5    7    1         0.7317450031E+00      0.1713055073E+01
          0                 4           2             5    8     1       0.1166040525E-02       5    8    1         0.6894668401E-01      0.9634075650E-01
          0                 5           1             5    8     1       0.1499307384E-03       5    8    1         0.8734852336E-02      0.8785206019E-02
          0                 6           1             5    8     1       0.1927701382E-04       5    8    1         0.1124254702E-02      0.1124465246E-02

    ------------------------------------------------
       NWT REQUIRED            6 OUTER ITERATIONS 
       AND A TOTAL OF         10 INNER ITERATIONS.
    ------------------------------------------------

 NO OUTPUT CONTROL FOR STRESS PERIOD   46   TIME STEP   10
 
 SOLVING FOR HEAD 
                                                   Max.-Head-Change                         Max.-Flux-Residual
  Residual-Control   Outer-Iter.   Inner-Iter.     Column Row Layer    Maximum-Head-Change  Column Row Layer    Maximum-Flux-Residual          L2-NORM 
          0                 1           2             5    7     1       0.6112595115E-01       5    7    1         0.3301615076E+01      0.7007986001E+01
          0                 2           2             5    7     1      -0.6068194765E-02       5    7    1        -0.3367230086E+00      0.7153073064E+00
          0                 3           2             5    7     1       0.4687850099E-03       5    7    1         0.2666768498E-01      0.5656579727E-01
          0                 4           1             5    7     1      -0.3648245728E-04       5    7    1        -0.2111118508E-02      0.4762343545E-02

    ------------------------------------------------
       NWT REQUIRED            4 OUTER ITERATIONS 
       AND A TOTAL OF          7 INNER ITERATIONS.
    ------------------------------------------------

 NO OUTPUT CONTROL FOR STRESS PERIOD   46   TIME STEP   11
 
 SOLVING FOR HEAD 
                                                   Max.-Head-Change                         Max.-Flux-Residual
  Residual-Control   Outer-Iter.   Inner-Iter.     Column Row Layer    Maximum-Head-Change  Column Row Layer    Maximum-Flux-Residual          L2-NORM 
          0                 1           2             5    7     1       0.5888530824E-01       5    7    1         0.3176802210E+01      0.6803934821E+01
          0                 2           2             5    7     1      -0.3930478147E-01       5    7    1        -0.2138334862E+01      0.5067102017E+01
          0                 3           2             5    8     1       0.1392051031E-01       5    8    1         0.7675678085E+00      0.1813896641E+01
          0                 4           2             5    8     1      -0.9479364427E-03       5    8    1        -0.5440043584E-01      0.8652121356E-01
          0                 5           1             5    8     1       0.3771924961E-04       5    8    1         0.2251582975E-02      0.2423604815E-02

    ------------------------------------------------
       NWT REQUIRED            5 OUTER ITERATIONS 
       AND A TOTAL OF          9 INNER ITERATIONS.
    ------------------------------------------------

 NO OUTPUT CONTROL FOR STRESS PERIOD   46   TIME STEP   12
 
 SOLVING FOR HEAD 
                                                   Max.-Head-Change                         Max.-Flux-Residual
  Residual-Control   Outer-Iter.   Inner-Iter.     Column Row Layer    Maximum-Head-Change  Column Row Layer    Maximum-Flux-Residual          L2-NORM 
          0                 1           2             5    7     1       0.5713787023E-01       5    7    1         0.3078454696E+01      0.6664184786E+01
          0                 2           2             5    7     1      -0.5684802028E-02       5    7    1        -0.3147237560E+00      0.6820955968E+00
          0                 3           2             5    7     1       0.4443574850E-03       5    7    1         0.2522139737E-01      0.5454821131E-01
          0                 4           1             5    7     1      -0.3758794197E-04       5    7    1        -0.2172062940E-02      0.4972857709E-02

    ------------------------------------------------
       NWT REQUIRED            4 OUTER ITERATIONS 
       AND A TOTAL OF          7 INNER ITERATIONS.
    ------------------------------------------------

 NO OUTPUT CONTROL FOR STRESS PERIOD   46   TIME STEP   13
 
 SOLVING FOR HEAD 
                                                   Max.-Head-Change                         Max.-Flux-Residual
  Residual-Control   Outer-Iter.   Inner-Iter.     Column Row Layer    Maximum-Head-Change  Column Row Layer    Maximum-Flux-Residual          L2-NORM 
          0                 1           2             5    7     1       0.5517901026E-01       5    7    1         0.2969608142E+01      0.6484196711E+01
          0                 2           2             4    7     1      -0.3914619356E-01       5    7    1        -0.2113389699E+01      0.5038018284E+01
          0                 3           2             4    7     1       0.1335712573E-01       5    7    1         0.7377831926E+00      0.1800096858E+01
          0                 4           2             4    7     1      -0.5314935650E-03       5    7    1        -0.3017221158E-01      0.7395922886E-01
          0                 5           1             4    7     1       0.6553544242E-05       5    7    1         0.3821552127E-03      0.9963445812E-03

    ------------------------------------------------
       NWT REQUIRED            5 OUTER ITERATIONS 
       AND A TOTAL OF          9 INNER ITERATIONS.
    ------------------------------------------------

 NO OUTPUT CONTROL FOR STRESS PERIOD   46   TIME STEP   14
 
 SOLVING FOR HEAD 
                                                   Max.-Head-Change                         Max.-Flux-Residual
  Residual-Control   Outer-Iter.   Inner-Iter.     Column Row Layer    Maximum-Head-Change  Column Row Layer    Maximum-Flux-Residual          L2-NORM 
          0                 1           2             4    7     1       0.5416665785E-01       5    7    1         0.2885712501E+01      0.6366489474E+01
          0                 2           2             4    7     1      -0.5443931332E-02       5    7    1        -0.2979636036E+00      0.6580275507E+00
          0                 3           2             4    7     1       0.4417283478E-03       5    7    1         0.2477546057E-01      0.5459727357E-01
          0                 4           1             4    7     1      -0.5653090114E-04       5    7    1        -0.3222324689E-02      0.7616589896E-02

    ------------------------------------------------
       NWT REQUIRED            4 OUTER ITERATIONS 
       AND A TOTAL OF          7 INNER ITERATIONS.
    ------------------------------------------------

 NO OUTPUT CONTROL FOR STRESS PERIOD   46   TIME STEP   15
 
 SOLVING FOR HEAD 
                                                   Max.-Head-Change                         Max.-Flux-Residual
  Residual-Control   Outer-Iter.   Inner-Iter.     Column Row Layer    Maximum-Head-Change  Column Row Layer    Maximum-Flux-Residual          L2-NORM 
          0                 1           2             4    7     1       0.5367950860E-01       4    7    1         0.2814441067E+01      0.6205744722E+01
          0                 2           2             4    7     1      -0.3900292655E-01       4    7    1        -0.2094481706E+01      0.5012221182E+01
          0                 3           2             4    7     1       0.1340883002E-01       4    7    1         0.7398512005E+00      0.1806730722E+01
          0                 4           2             4    7     1      -0.5335509508E-03       4    7    1        -0.3026002194E-01      0.7423163983E-01
          0                 5           1             4    7     1       0.6578913026E-05       4    7    1         0.3834876579E-03      0.1000051867E-02

    ------------------------------------------------
       NWT REQUIRED            5 OUTER ITERATIONS 
       AND A TOTAL OF          9 INNER ITERATIONS.
    ------------------------------------------------

 NO OUTPUT CONTROL FOR STRESS PERIOD   46   TIME STEP   16
 
 SOLVING FOR HEAD 
                                                   Max.-Head-Change                         Max.-Flux-Residual
  Residual-Control   Outer-Iter.   Inner-Iter.     Column Row Layer    Maximum-Head-Change  Column Row Layer    Maximum-Flux-Residual          L2-NORM 
          0                 1           2             4    8     1       0.1168107027E+00       4    8    1         0.6311461450E+01      0.8699387642E+01
          0                 2           2             5    7     1       0.2952557652E-01       5    7    1         0.1639028858E+01      0.1786992641E+01
          0                 3           2             5    7     1       0.1308046781E-01       5    7    1         0.7216096250E+00      0.7241530399E+00
          0                 4           2             5    7     1       0.5680729749E-02       5    7    1         0.3139558807E+00      0.3141141651E+00
          0                 5           2             5    7     1       0.2675564384E-02       5    7    1         0.1473232684E+00      0.1488210119E+00
          0                 6           2             5    7     1       0.1151954405E-02       5    7    1         0.6369129689E-01      0.6376982534E-01
          0                 7           2             5    7     1       0.4661457354E-03       5    7    1         0.2584387600E-01      0.2633908745E-01
          0                 8           2             5    7     1       0.1379504156E-03       5    7    1         0.7785557222E-02      0.1145086179E-01
          0                 9           2             5    7     1       0.2059257427E-03       5    7    1         0.1101346704E-01      0.2026937885E-01
          0                10           1             5    7     1       0.7203149864E-04       5    7    1         0.4011645551E-02      0.4373937221E-02

    ------------------------------------------------
       NWT REQUIRED           10 OUTER ITERATIONS 
       AND A TOTAL OF         19 INNER ITERATIONS.
    ------------------------------------------------

 NO OUTPUT CONTROL FOR STRESS PERIOD   46   TIME STEP   17
 
 SOLVING FOR HEAD 
                                                   Max.-Head-Change                         Max.-Flux-Residual
  Residual-Control   Outer-Iter.   Inner-Iter.     Column Row Layer    Maximum-Head-Change  Column Row Layer    Maximum-Flux-Residual          L2-NORM 
          0                 1           2             5    7     1       0.1179097231E+00       5    7    1         0.6425695005E+01      0.8361208513E+01
          0                 2           2             4    7     1      -0.3475580657E-01       4    7    1        -0.1885364415E+01      0.4024523858E+01
          0                 3           2             4    7     1       0.1694920580E-01       4    7    1         0.9429070174E+00      0.2106310943E+01
          0                 4           2             5    7     1       0.1601194460E-02       5    7    1         0.9528672937E-01      0.1524619277E+00
          0                 5           2             5    7     1       0.2053034290E-03       5    7    1         0.1195924827E-01      0.1674454562E-01
          0                 6           1             4    8     1       0.2662536729E-04       5    7    1         0.1535465578E-02      0.2166812058E-02

    ------------------------------------------------
       NWT REQUIRED            6 OUTER ITERATIONS 
       AND A TOTAL OF         11 INNER ITERATIONS.
    ------------------------------------------------

 NO OUTPUT CONTROL FOR STRESS PERIOD   46   TIME STEP   18
 
 SOLVING FOR HEAD 
                                                   Max.-Head-Change                         Max.-Flux-Residual
  Residual-Control   Outer-Iter.   Inner-Iter.     Column Row Layer    Maximum-Head-Change  Column Row Layer    Maximum-Flux-Residual          L2-NORM 
          0                 1           2             5    6     1       0.1005161086E+00       5    6    1         0.5487743754E+01      0.7590821488E+01
          0                 2           2             4    7     1      -0.1006085512E-01       4    7    1        -0.5554169208E+00      0.8613869358E+00
          0                 3           2             4    7     1       0.5186630810E-02       4    7    1         0.2876139206E+00      0.6505380985E+00
          0                 4           2             5    7     1       0.5430398154E-03       5    7    1         0.3178710223E-01      0.5388422995E-01
          0                 5           1             4    8     1       0.7334426868E-04       5    7    1         0.4216888345E-02      0.7029000709E-02

    ------------------------------------------------
       NWT REQUIRED            5 OUTER ITERATIONS 
       AND A TOTAL OF          9 INNER ITERATIONS.
    ------------------------------------------------

 NO OUTPUT CONTROL FOR STRESS PERIOD   46   TIME STEP   19
 
 SOLVING FOR HEAD 
                                                   Max.-Head-Change                         Max.-Flux-Residual
  Residual-Control   Outer-Iter.   Inner-Iter.     Column Row Layer    Maximum-Head-Change  Column Row Layer    Maximum-Flux-Residual          L2-NORM 
          0                 1           2             4    7     1       0.5505941232E-01       4    7    1         0.2909086161E+01      0.5537773962E+01
          0                 2           2             4    7     1      -0.3503336879E-01       4    7    1        -0.1895133902E+01      0.4007142076E+01
          0                 3           2             4    7     1       0.1678769693E-01       4    7    1         0.9347108573E+00      0.1962562444E+01
          0                 4           2             4    8     1       0.1526699257E-02       4    8    1         0.8877741050E-01      0.1666196336E+00
          0                 5           2             4    8     1       0.1999202112E-03       4    8    1         0.1146480336E-01      0.1976726693E-01
          0                 6           1             4    8     1       0.2617769151E-04       4    8    1         0.1502503689E-02      0.2586551998E-02

    ------------------------------------------------
       NWT REQUIRED            6 OUTER ITERATIONS 
       AND A TOTAL OF         11 INNER ITERATIONS.
    ------------------------------------------------

 NO OUTPUT CONTROL FOR STRESS PERIOD   46   TIME STEP   20
 
 SOLVING FOR HEAD 
                                                   Max.-Head-Change                         Max.-Flux-Residual
  Residual-Control   Outer-Iter.   Inner-Iter.     Column Row Layer    Maximum-Head-Change  Column Row Layer    Maximum-Flux-Residual          L2-NORM 
          0                 1           2             4    7     1       0.5435466080E-01       4    7    1         0.2872308363E+01      0.5452148177E+01
          0                 2           2             4    7     1      -0.8530777164E-02       4    7    1        -0.4725135916E+00      0.7072270487E+00
          0                 3           2             4    7     1       0.3731067734E-02       4    7    1         0.2069518542E+00      0.4586123551E+00
          0                 4           2             4    8     1       0.4000763622E-03       4    8    1         0.2322209465E-01      0.4237509618E-01
          0                 5           1             4    8     1       0.6556368075E-04       4    8    1         0.3740077827E-02      0.7149780575E-02

    ------------------------------------------------
       NWT REQUIRED            5 OUTER ITERATIONS 
       AND A TOTAL OF          9 INNER ITERATIONS.
    ------------------------------------------------

 NO OUTPUT CONTROL FOR STRESS PERIOD   46   TIME STEP   21
 
 SOLVING FOR HEAD 
                                                   Max.-Head-Change                         Max.-Flux-Residual
  Residual-Control   Outer-Iter.   Inner-Iter.     Column Row Layer    Maximum-Head-Change  Column Row Layer    Maximum-Flux-Residual          L2-NORM 
          0                 1           2             4    7     1       0.5365189441E-01       4    7    1         0.2836281528E+01      0.5332040076E+01
          0                 2           2             4    7     1      -0.3438264618E-01       4    7    1        -0.1859712919E+01      0.3944355114E+01
          0                 3           2             4    7     1       0.1725525859E-01       4    7    1         0.9603719984E+00      0.2029857268E+01
          0                 4           2             4    8     1       0.1597266431E-02       4    8    1         0.9286205219E-01      0.1738613061E+00
          0                 5           2             4    8     1       0.2091601212E-03       4    8    1         0.1199492491E-01      0.2068660893E-01
          0                 6           1             4    8     1       0.2738746512E-04       4    8    1         0.1571951317E-02      0.2706913505E-02

    ------------------------------------------------
       NWT REQUIRED            6 OUTER ITERATIONS 
       AND A TOTAL OF         11 INNER ITERATIONS.
    ------------------------------------------------

 NO OUTPUT CONTROL FOR STRESS PERIOD   46   TIME STEP   22
 
 SOLVING FOR HEAD 
                                                   Max.-Head-Change                         Max.-Flux-Residual
  Residual-Control   Outer-Iter.   Inner-Iter.     Column Row Layer    Maximum-Head-Change  Column Row Layer    Maximum-Flux-Residual          L2-NORM 
          0                 1           2             4    7     1       0.5293356531E-01       4    7    1         0.2798616284E+01      0.5252693075E+01
          0                 2           2             4    7     1      -0.9922589330E-02       4    7    1        -0.5467193920E+00      0.8530639750E+00
          0                 3           2             4    7     1       0.5274741621E-02       4    7    1         0.2925528450E+00      0.6517532625E+00
          0                 4           2             4    8     1       0.5609783560E-03       4    8    1         0.3257351544E-01      0.5980391188E-01
          0                 5           1             4    8     1       0.8324521058E-04       4    8    1         0.4759329929E-02      0.8854381011E-02

    ------------------------------------------------
       NWT REQUIRED            5 OUTER ITERATIONS 
       AND A TOTAL OF          9 INNER ITERATIONS.
    ------------------------------------------------

 NO OUTPUT CONTROL FOR STRESS PERIOD   46   TIME STEP   23
 
 SOLVING FOR HEAD 
                                                   Max.-Head-Change                         Max.-Flux-Residual
  Residual-Control   Outer-Iter.   Inner-Iter.     Column Row Layer    Maximum-Head-Change  Column Row Layer    Maximum-Flux-Residual          L2-NORM 
          0                 1           2             4    7     1       0.5222066492E-01       4    7    1         0.2761849242E+01      0.5141395266E+01
          0                 2           2             4    7     1      -0.3438397805E-01       4    7    1        -0.1859345928E+01      0.3926471417E+01
          0                 3           2             4    7     1       0.1712500408E-01       4    7    1         0.9532700700E+00      0.1965517971E+01
          0                 4           2             4    8     1       0.1573701510E-02       5    7    1         0.9145068391E-01      0.1706555757E+00
          0                 5           2             4    8     1       0.2060734939E-03       4    8    1         0.1181860227E-01      0.2039587632E-01
          0                 6           1             4    8     1       0.2698319398E-04       4    8    1         0.1548764062E-02      0.2668940447E-02

    ------------------------------------------------
       NWT REQUIRED            6 OUTER ITERATIONS 
       AND A TOTAL OF         11 INNER ITERATIONS.
    ------------------------------------------------

 NO OUTPUT CONTROL FOR STRESS PERIOD   46   TIME STEP   24
 
 SOLVING FOR HEAD 
                                                   Max.-Head-Change                         Max.-Flux-Residual
  Residual-Control   Outer-Iter.   Inner-Iter.     Column Row Layer    Maximum-Head-Change  Column Row Layer    Maximum-Flux-Residual          L2-NORM 
          0                 1           2             4    7     1       0.5149663914E-01       4    7    1         0.2723687523E+01      0.5070152722E+01
          0                 2           2             4    7     1      -0.8896969265E-02       4    7    1        -0.4912550689E+00      0.7130092084E+00
          0                 3           2             4    7     1       0.4343458195E-02       4    7    1         0.2409365290E+00      0.5194766199E+00
          0                 4           2             4    8     1       0.4618602356E-03       4    8    1         0.2631558369E-01      0.5338427125E-01
          0                 5           1             4    8     1       0.8073844634E-04       4    8    1         0.4554846801E-02      0.9601960087E-02

    ------------------------------------------------
       NWT REQUIRED            5 OUTER ITERATIONS 
       AND A TOTAL OF          9 INNER ITERATIONS.
    ------------------------------------------------

 NO OUTPUT CONTROL FOR STRESS PERIOD   46   TIME STEP   25
 
 SOLVING FOR HEAD 
                                                   Max.-Head-Change                         Max.-Flux-Residual
  Residual-Control   Outer-Iter.   Inner-Iter.     Column Row Layer    Maximum-Head-Change  Column Row Layer    Maximum-Flux-Residual          L2-NORM 
          0                 1           2             4    7     1       0.5078429576E-01       4    7    1         0.2686738130E+01      0.4966840696E+01
          0                 2           2             4    7     1      -0.3379964549E-01       4    7    1        -0.1827557890E+01      0.3843150245E+01
          0                 3           2             4    7     1       0.1752638127E-01       4    7    1         0.9753219349E+00      0.1991988405E+01
          0                 4           2             4    8     1       0.1643023557E-02       5    7    1         0.9483372570E-01      0.1734117058E+00
          0                 5           2             4    8     1       0.2156506861E-03       4    8    1         0.1235245667E-01      0.2133180008E-01
          0                 6           1             4    8     1       0.2832337974E-04       4    8    1         0.1622142745E-02      0.2801381459E-02

    ------------------------------------------------
       NWT REQUIRED            6 OUTER ITERATIONS 
       AND A TOTAL OF         11 INNER ITERATIONS.
    ------------------------------------------------

 NO OUTPUT CONTROL FOR STRESS PERIOD   46   TIME STEP   26
 
 SOLVING FOR HEAD 
                                                   Max.-Head-Change                         Max.-Flux-Residual
  Residual-Control   Outer-Iter.   Inner-Iter.     Column Row Layer    Maximum-Head-Change  Column Row Layer    Maximum-Flux-Residual          L2-NORM 
          0                 1           2             4    7     1       0.5006356577E-01       4    7    1         0.2648642051E+01      0.4899778642E+01
          0                 2           2             4    7     1      -0.9830450731E-02       4    7    1        -0.5409238971E+00      0.8051181978E+00
          0                 3           2             4    7     1       0.5423765210E-02       4    7    1         0.3008392535E+00      0.6520918861E+00
          0                 4           2             4    8     1       0.5847778621E-03       4    8    1         0.3329613477E-01      0.6787447674E-01
          0                 5           1             4    8     1       0.7551759198E-04       4    8    1         0.4274867791E-02      0.8989818399E-02

    ------------------------------------------------
       NWT REQUIRED            5 OUTER ITERATIONS 
       AND A TOTAL OF          9 INNER ITERATIONS.
    ------------------------------------------------

 NO OUTPUT CONTROL FOR STRESS PERIOD   46   TIME STEP   27
 
 SOLVING FOR HEAD 
                                                   Max.-Head-Change                         Max.-Flux-Residual
  Residual-Control   Outer-Iter.   Inner-Iter.     Column Row Layer    Maximum-Head-Change  Column Row Layer    Maximum-Flux-Residual          L2-NORM 
          0                 1           2             4    7     1       0.4935678017E-01       4    7    1         0.2611841002E+01      0.4801981374E+01
          0                 2           2             4    7     1      -0.3101194838E-01       4    7    1        -0.1677506759E+01      0.3494893591E+01
          0                 3           2             4    7     1       0.1993344577E-01       4    7    1         0.1107379751E+01      0.2339939672E+01
          0                 4           2             4    8     1       0.2024976401E-02       5    7    1         0.1162031364E+00      0.2178179574E+00
          0                 5           2             4    8     1       0.2677682374E-03       4    8    1         0.1525202555E-01      0.2733541100E-01
          0                 6           1             4    8     1       0.3542274433E-04       4    8    1         0.2017663642E-02      0.3617700810E-02

    ------------------------------------------------
       NWT REQUIRED            6 OUTER ITERATIONS 
       AND A TOTAL OF         11 INNER ITERATIONS.
    ------------------------------------------------

 NO OUTPUT CONTROL FOR STRESS PERIOD   46   TIME STEP   28
 
 SOLVING FOR HEAD 
                                                   Max.-Head-Change                         Max.-Flux-Residual
  Residual-Control   Outer-Iter.   Inner-Iter.     Column Row Layer    Maximum-Head-Change  Column Row Layer    Maximum-Flux-Residual          L2-NORM 
          0                 1           2             4    7     1       0.4864550615E-01       4    7    1         0.2574379296E+01      0.4728154179E+01
          0                 2           2             4    7     1      -0.1338716109E-01       4    7    1        -0.7313736879E+00      0.1231661440E+01
          0                 3           2             4    7     1       0.9261266285E-02       4    7    1         0.5136108739E+00      0.1118664394E+01
          0                 4           2             4    8     1       0.1064190712E-02       4    8    1         0.6050461491E-01      0.1225017182E+00
          0                 5           2             4    8     1       0.1435774429E-03       4    8    1         0.8121841803E-02      0.1617482948E-01
          0                 6           1             4   13     1      -0.1936430888E-04       4   13    1        -0.1203979354E-02      0.2801043330E-02

    ------------------------------------------------
       NWT REQUIRED            6 OUTER ITERATIONS 
       AND A TOTAL OF         11 INNER ITERATIONS.
    ------------------------------------------------

 NO OUTPUT CONTROL FOR STRESS PERIOD   46   TIME STEP   29
 
 SOLVING FOR HEAD 
                                                   Max.-Head-Change                         Max.-Flux-Residual
  Residual-Control   Outer-Iter.   Inner-Iter.     Column Row Layer    Maximum-Head-Change  Column Row Layer    Maximum-Flux-Residual          L2-NORM 
          0                 1           2             4    7     1       0.4794351825E-01       4    7    1         0.2537723307E+01      0.4636838935E+01
          0                 2           2             4    7     1      -0.2884054352E-01       4    7    1        -0.1560538094E+01      0.3228096301E+01
          0                 3           2             4    7     1       0.2178113543E-01       4    7    1         0.1208748942E+01      0.2609459289E+01
          0                 4           2             4    8     1       0.2317694901E-02       5    7    1         0.1326119362E+00      0.2556610874E+00
          0                 5           2             4    8     1       0.3076235981E-03       4    8    1         0.1747311423E-01      0.3239884341E-01
          0                 6           1             4    8     1       0.4084115697E-04       4    8    1         0.2320012331E-02      0.4298329499E-02

    ------------------------------------------------
       NWT REQUIRED            6 OUTER ITERATIONS 
       AND A TOTAL OF         11 INNER ITERATIONS.
    ------------------------------------------------

 NO OUTPUT CONTROL FOR STRESS PERIOD   46   TIME STEP   30



 STREAM LISTING     PERIOD     46   STEP       30

 LAYER ROW COL. STREAM  RCH.  FLOW INTO     FLOW TO   FLOW OUT OF   OVRLND.     DIRECT     STREAM       STREAM     STREAM     STREAM   STREAMBED  STREAMBED
                SEG.NO.  NO.  STRM. RCH.    AQUIFER    STRM. RCH.    RUNOFF     PRECIP       ET          HEAD       DEPTH      WIDTH   CONDCTNC.   GRADIENT

   1    1    1     1     1    1.8749E+01  2.1264E-01   1.8537E+01  0.000E+00  0.000E+00  0.000E+00  1.09413E+03  1.078E+00  1.159E+01  5.215E-02  1.359E+00
   1    2    2     1     2    1.8537E+01  3.2801E-01   1.8209E+01  0.000E+00  0.000E+00  0.000E+00  1.08913E+03  1.073E+00  1.150E+01  8.053E-02  1.358E+00
   1    3    3     1     3    1.8209E+01  2.7848E-01   1.7930E+01  0.000E+00  0.000E+00  0.000E+00  1.08349E+03  1.068E+00  1.141E+01  6.845E-02  1.356E+00
   1    3    4     1     4    1.7930E+01  2.5541E-01   1.7675E+01  0.000E+00  0.000E+00  0.000E+00  1.07847E+03  1.064E+00  1.132E+01  6.285E-02  1.355E+00
   1    4    5     2     1    1.5675E+01  3.0476E-01   1.5370E+01  0.000E+00  0.000E+00  0.000E+00  1.07284E+03  9.072E-01  1.200E+01  7.800E-02  1.302E+00
   1    5    6     2     2    1.5370E+01  2.3387E-01   1.5136E+01  0.000E+00  0.000E+00  0.000E+00  1.06741E+03  8.978E-01  1.200E+01  6.000E-02  1.299E+00
   1    6    6     2     3    1.5136E+01  2.3337E-01   1.4903E+01  0.000E+00  0.000E+00  0.000E+00  1.06268E+03  8.895E-01  1.200E+01  6.000E-02  1.296E+00
   1    7    6     2     4    1.4903E+01  2.3287E-01   1.4670E+01  0.000E+00  0.000E+00  0.000E+00  1.05796E+03  8.812E-01  1.200E+01  6.000E-02  1.294E+00
   1    8    6     2     5    1.4670E+01  2.3237E-01   1.4438E+01  0.000E+00  0.000E+00  0.000E+00  1.05323E+03  8.728E-01  1.200E+01  6.000E-02  1.291E+00
   1    3    5     3     1    2.0000E+00  2.8252E-01   1.7175E+00  0.000E+00  0.000E+00  0.000E+00  1.07555E+03  1.909E+00  9.636E+00  7.227E-02  1.955E+00
   1    3    6     3     2    1.7175E+00  2.4905E-01   1.4684E+00  0.000E+00  0.000E+00  0.000E+00  1.07264E+03  1.727E+00  8.909E+00  6.682E-02  1.864E+00
   1    3    7     3     3    1.4684E+00  1.9718E-01   1.2712E+00  0.000E+00  0.000E+00  0.000E+00  1.06987E+03  1.555E+00  8.218E+00  5.547E-02  1.777E+00
   1    4    8     3     4    1.2712E+00  2.2567E-01   1.0456E+00  0.000E+00  0.000E+00  0.000E+00  1.06682E+03  1.364E+00  7.455E+00  6.709E-02  1.682E+00
   1    5    8     3     5    1.0456E+00  1.5790E-01   8.8768E-01  0.000E+00  0.000E+00  0.000E+00  1.06362E+03  1.164E+00  6.655E+00  4.991E-02  1.582E+00
   1    6    8     3     6    8.8768E-01  5.5980E-02   8.3170E-01  0.000E+00  0.000E+00  0.000E+00  1.06158E+03  1.036E+00  6.145E+00  1.844E-02  1.518E+00
   1    5   10     4     1    1.0000E+01  9.0919E-02   9.9091E+00  0.000E+00  0.000E+00  0.000E+00  1.07836E+03  6.368E-01  1.000E+01  2.500E-02  1.212E+00
   1    5    9     4     2    9.9091E+00  1.8158E-01   9.7275E+00  0.000E+00  0.000E+00  0.000E+00  1.07154E+03  6.315E-01  1.000E+01  5.000E-02  1.211E+00
   1    6    8     4     3    9.7275E+00  1.2689E-01   9.6006E+00  0.000E+00  0.000E+00  0.000E+00  1.06381E+03  6.256E-01  1.000E+01  3.500E-02  1.209E+00
   1    6    8     5     1    1.0432E+01  2.2686E-01   1.0205E+01  0.000E+00  0.000E+00  0.000E+00  1.05868E+03  6.790E-01  1.542E+01  6.166E-02  1.226E+00
   1    7    7     5     2    1.0205E+01  2.7894E-01   9.9265E+00  0.000E+00  0.000E+00  0.000E+00  1.05417E+03  6.732E-01  1.519E+01  7.594E-02  1.224E+00
   1    8    7     5     3    9.9265E+00  1.9221E-01   9.7343E+00  0.000E+00  0.000E+00  0.000E+00  1.04992E+03  6.676E-01  1.497E+01  5.241E-02  1.223E+00
   1    8    6     5     4    9.7343E+00  1.3577E-01   9.5985E+00  0.000E+00  0.000E+00  0.000E+00  1.04691E+03  6.637E-01  1.482E+01  3.706E-02  1.221E+00
   1    9    6     6     1    9.5985E+00  2.2097E-01   9.3776E+00  0.000E+00  0.000E+00  0.000E+00  1.04341E+03  6.828E-01  1.200E+01  6.000E-02  1.228E+00
   1   10    7     6     2    9.3776E+00  2.2039E-01   9.1572E+00  0.000E+00  0.000E+00  0.000E+00  1.03885E+03  6.732E-01  1.200E+01  6.000E-02  1.224E+00
   1   11    7     6     3    9.1572E+00  2.1981E-01   8.9374E+00  0.000E+00  0.000E+00  0.000E+00  1.03430E+03  6.636E-01  1.200E+01  6.000E-02  1.221E+00
   1   12    7     6     4    8.9374E+00  2.1923E-01   8.7181E+00  0.000E+00  0.000E+00  0.000E+00  1.02974E+03  6.539E-01  1.200E+01  6.000E-02  1.218E+00
   1   13    7     6     5    8.7181E+00 -8.3720E-02   8.8019E+00  0.000E+00  0.000E+00  0.000E+00  1.02656E+03  6.508E-01  1.200E+01  2.400E-01 -1.163E-01
   1   14    9     7     1    1.5000E+02  1.3542E+00   1.4865E+02  0.000E+00  0.000E+00  0.000E+00  1.03987E+03  2.288E+00  5.529E+01  5.593E-01  8.071E-01
   1   13    8     7     2    1.4865E+02  1.8872E+00   1.4676E+02  0.000E+00  0.000E+00  0.000E+00  1.03478E+03  2.279E+00  5.526E+01  6.148E-01  1.023E+00
   1   13    7     7     3    1.4676E+02  1.5527E+00   1.4521E+02  0.000E+00  0.000E+00  0.000E+00  1.02969E+03  2.270E+00  5.521E+01  5.584E-01  9.268E-01
   1   13    6     8     1    1.5401E+02  9.0929E-01   1.5310E+02  0.000E+00  0.000E+00  0.000E+00  1.02472E+03  2.842E+00  4.120E+01  4.199E-01  7.219E-01
   1   13    5     8     2    1.5310E+02  1.7751E-01   1.5292E+02  0.000E+00  0.000E+00  0.000E+00  1.01846E+03  2.838E+00  4.115E+01  4.193E-01  1.411E-01
   1   13    4     8     3    1.5292E+02 -2.4780E+00   1.5540E+02  0.000E+00  0.000E+00  0.000E+00  1.01222E+03  2.846E+00  4.127E+01  4.205E+00 -1.964E-01
   1   13    3     8     4    1.5540E+02 -3.7007E+00   1.5910E+02  0.000E+00  0.000E+00  0.000E+00  1.00599E+03  2.867E+00  4.157E+01  4.236E+00 -2.912E-01
   1   13    2     8     5    1.5910E+02 -2.6729E+00   1.6177E+02  0.000E+00  0.000E+00  0.000E+00  9.99764E+02  2.889E+00  4.189E+01  4.268E+00 -2.087E-01
   1   13    1     8     6    1.6177E+02 -2.0326E+00   1.6381E+02  0.000E+00  0.000E+00  0.000E+00  9.94780E+02  2.905E+00  4.212E+01  2.575E+00 -2.631E-01
   1    8    6     9     1    1.4438E+01  0.0000E+00   1.4438E+01  0.000E+00  0.000E+00  0.000E+00  1.08157E+03  2.825E+00  4.000E+00  0.000E+00  1.942E+00
   1    8    5     9     2    1.4438E+01  0.0000E+00   1.4438E+01  0.000E+00  0.000E+00  0.000E+00  1.08107E+03  2.825E+00  4.000E+00  0.000E+00  1.942E+00





UNSATURATED ZONE PACKAGE VOLUMETRIC BUDGET FOR  TIME STEP    30 STRESS PERIOD   46
  ------------------------------------------------------------------------------



     CUMULATIVE VOLUMES      L**3       RATES FOR THIS TIME STEP      L**3/T
     ------------------                 ------------------------

           IN:                                      IN:
           ---                                      ---
        INFILTRATION =  2438456216.4456          INFILTRATION =          20.0889

          OUT:                                     OUT:
          ----                                     ----
              UZF ET =  1972987897.1162                UZF ET =          15.3575
        UZF RECHARGE =    87941669.0436          UZF RECHARGE =           1.0310

            IN - OUT =   377526650.2858              IN - OUT =           3.7004

          STORAGE:                                 STORAGE:
          --------                                 --------
      STORAGE CHANGE =   377528157.5056        STORAGE CHANGE =           3.7004

 PERCENT DISCREPANCY IS DIFFERENCE BETWEEN IN-OUT MINUS CHANGE IN STORAGE
 DIVIDED BY THE AVERAGE OF IN AND OUT TIMES 100

 PERCENT DISCREPANCY =          -0.00     PERCENT DISCREPANCY =           0.00






1
  VOLUMETRIC BUDGET FOR AGRICULTURAL FIELDS AT  END OF TIME STEP   30, STRESS PERIOD  46
  ------------------------------------------------------------------------------

     CUMULATIVE VOLUMES      L**3       RATES FOR THIS TIME STEP      L**3/T
     ------------------                 ------------------------

           IN:                                      IN:
           ---                                      ---
               AG WELLS  =   737070656.0000                 AG WELLS  =           1.2435
      DIVERSION SEGMENTS =  1180230656.0000        DIVERSION SEGMENTS =          14.4376
           GW IRRIGATION =           0.0000             GW IRRIGATION =           0.0000
           SW IRRIGATION =           0.0000             SW IRRIGATION =           0.0000
        SYSTEM LOSSES GW =           0.0000          SYSTEM LOSSES GW =           0.0000
        SYSTEM LOSSES SW =           0.0000          SYSTEM LOSSES SW =           0.0000

                TOTAL IN =  1917301248.0000                  TOTAL IN =          15.6811

          OUT:                                     OUT:
          ----                                     ----
               AG WELLS  =           0.0000                 AG WELLS  =           0.0000
      DIVERSION SEGMENTS =           0.0000        DIVERSION SEGMENTS =           0.0000
           GW IRRIGATION =   737070656.0000             GW IRRIGATION =           1.2435
           SW IRRIGATION =  1180251264.0000             SW IRRIGATION =          14.4379
        SYSTEM LOSSES GW =           0.0000          SYSTEM LOSSES GW =           0.0000
        SYSTEM LOSSES SW =           0.0000          SYSTEM LOSSES SW =           0.0000

               TOTAL OUT =  1917321984.0000                 TOTAL OUT =          15.6814

                IN - OUT =      -20736.0000                  IN - OUT =      -2.8896E-04

     PERCENT DISCREPANCY =          -0.00         PERCENT DISCREPANCY =          -0.00



1
  VOLUMETRIC BUDGET FOR ENTIRE MODEL AT END OF TIME STEP   30, STRESS PERIOD  46
  ------------------------------------------------------------------------------

     CUMULATIVE VOLUMES      L**3       RATES FOR THIS TIME STEP      L**3/T
     ------------------                 ------------------------

           IN:                                      IN:
           ---                                      ---
             STORAGE     =  1147751424.0000               STORAGE     =           9.8314
       CONSTANT HEAD     =           0.0000         CONSTANT HEAD     =           0.0000
     HEAD DEP BOUNDS     =    33888248.0000       HEAD DEP BOUNDS     =           0.2870
      STREAM LEAKAGE     =  1428697088.0000        STREAM LEAKAGE     =          11.4745
        UZF RECHARGE     =    87941656.0000          UZF RECHARGE     =           1.0310
               GW ET     =           0.0000                 GW ET     =           0.0000
     SURFACE LEAKAGE     =           0.0000       SURFACE LEAKAGE     =           0.0000
           AG WELLS      =           0.0000             AG WELLS      =           0.0000

                TOTAL IN =  2698278400.0000                  TOTAL IN =          22.6240

          OUT:                                     OUT:
          ----                                     ----
             STORAGE     =   663142976.0000               STORAGE     =          10.1239
       CONSTANT HEAD     =           0.0000         CONSTANT HEAD     =           0.0000
     HEAD DEP BOUNDS     =    34428748.0000       HEAD DEP BOUNDS     =           0.2876
      STREAM LEAKAGE     =  1260777472.0000        STREAM LEAKAGE     =          10.9679
        UZF RECHARGE     =           0.0000          UZF RECHARGE     =           0.0000
               GW ET     =     2857194.5000                 GW ET     =           0.0000
     SURFACE LEAKAGE     =           0.0000       SURFACE LEAKAGE     =           0.0000
           AG WELLS      =   737070656.0000             AG WELLS      =           1.2435

               TOTAL OUT =  2698277120.0000                 TOTAL OUT =          22.6229

                IN - OUT =        1280.0000                  IN - OUT =       1.1425E-03

     PERCENT DISCREPANCY =           0.00         PERCENT DISCREPANCY =           0.01






         TIME SUMMARY AT END OF TIME STEP   30 IN STRESS PERIOD   46
                    SECONDS     MINUTES      HOURS       DAYS        YEARS
                    -----------------------------------------------------------
   TIME STEP LENGTH  87667.      1461.1      24.352      1.0147     2.77799E-03
 STRESS PERIOD TIME 2.63000E+06  43833.      730.56      30.440     8.33397E-02
         TOTAL TIME 1.18435E+08 1.97392E+06  32899.      1370.8      3.7530    
1
1
                            STRESS PERIOD NO.   47, LENGTH =   2630000.    
                            -----------------------------------------------

                              NUMBER OF TIME STEPS =    30

                               MULTIPLIER FOR DELT =     1.000

                            INITIAL TIME STEP SIZE =   87666.66    

 REUSING NON-PARAMETER GHB CELLS FROM LAST STRESS PERIOD

      2 GHB CELLS

 REUSING STREAM SEGMENT DATA FROM LAST STRESS PERIOD



            AREAL INFILTRATION RATE
 READING ON UNIT   19 WITH FORMAT: (10F4.0)            

            1           2           3           4           5           6           7           8           9          10
 ........................................................................................................................
   1   1.2000E-09   0.000       0.000       0.000       0.000       0.000       0.000       0.000       0.000       0.000    
   2   2.1000E-09  2.0000E-09  8.0000E-10  8.5000E-09   0.000       0.000       0.000       0.000       0.000       0.000    
   3   5.0000E-10  1.1000E-09  8.8000E-09  5.5000E-09   0.000       0.000       0.000       0.000       0.000       0.000    
   4   8.5000E-09  1.1000E-09  1.1000E-09  1.1000E-09  2.0000E-09   0.000       0.000       0.000       0.000       0.000    
   5   8.5000E-09  1.1000E-09  1.1000E-09  1.1000E-09  1.1000E-09   0.000       0.000       0.000       0.000       0.000    
   6   8.5000E-09  5.2000E-09  2.1000E-09  1.1000E-09  1.5000E-09   0.000       0.000       0.000       0.000       0.000    
   7   8.5000E-09  5.2000E-09  2.1000E-09  1.2000E-09  2.0000E-09   0.000       0.000       0.000       0.000       0.000    
   8   5.0000E-10  5.2000E-09  2.1000E-09  1.2000E-09  5.0000E-09   0.000       0.000       0.000       0.000       0.000    
   9   5.0000E-10  5.2000E-09  2.1000E-09  1.2000E-09  5.0000E-09   0.000       0.000       0.000       0.000       0.000    
  10   5.0000E-10  5.2000E-09  2.1000E-09  1.2000E-09  5.8000E-09   0.000       0.000       0.000       0.000       0.000    
  11   1.0000E-10  1.1000E-09  1.1000E-09  1.2000E-09  5.0000E-09   0.000       0.000       0.000       0.000       0.000    
  12   1.1000E-09  1.1000E-09  1.1000E-09  1.1000E-09  2.0000E-09   0.000       0.000       0.000       0.000       0.000    
  13   1.1000E-09  2.2000E-09  2.2000E-09  2.1000E-09  1.0000E-09   0.000       0.000       0.000       0.000       0.000    
  14   2.0000E-10  5.5000E-09  5.5000E-09  5.2000E-09  1.0000E-09   0.000       0.000       0.000       0.000       0.000    
  15    0.000      8.8000E-09  8.8000E-09   0.000       0.000       0.000       0.000       0.000       0.000       0.000    

                  ET RATE =  5.000000E-09

 USING ET EXTINCTION DEPTH FROM PREVIOUS STRESS PERIOD. CURRENT PERIOD IS:      47

 USING EXTINCTION WATER CONTENT FROM PREVIOUS STRESS PERIOD. CURRENT PERIOD IS:      47

 USING AIR ENTRY PRESSURE FROM PREVIOUS STRESS PERIOD. CURRENT PERIOD IS:      47

 USING ROOT PRESSURE HEAD FROM PREVIOUS STRESS PERIOD. CURRENT PERIOD IS:      47

 USING ROOT ACTIVITY FROM PREVIOUS STRESS PERIOD. CURRENT PERIOD IS:      47

 PROCESSING AG STRESS PERIOD DATA

 READING AG STRESS PERIOD DATA

 READING IRRIGATION SEGMENT

 READING IRRIGATION WELL

 READING SUPPLEMENTAL WELL

 END PROCESSING AG STRESS PERIOD DATA OPTIONS
 
 SOLVING FOR HEAD 
                                                   Max.-Head-Change                         Max.-Flux-Residual
  Residual-Control   Outer-Iter.   Inner-Iter.     Column Row Layer    Maximum-Head-Change  Column Row Layer    Maximum-Flux-Residual          L2-NORM 
          0                 1           2             4    7     1       0.4724043224E-01       4    7    1         0.2500779509E+01      0.4558822186E+01
          0                 2           2             4    7     1      -0.4437206971E-02       4    7    1        -0.2505975101E+00      0.4343757799E+00
          0                 3           2             4    7     1       0.3170899455E-03       4    7    1         0.1774866677E-01      0.3216580526E-01
          0                 4           1             4    8     1       0.1786392315E-04       4    8    1         0.9723642061E-03      0.1967226457E-02

    ------------------------------------------------
       NWT REQUIRED            4 OUTER ITERATIONS 
       AND A TOTAL OF          7 INNER ITERATIONS.
    ------------------------------------------------

 NO OUTPUT CONTROL FOR STRESS PERIOD   47   TIME STEP    1
 
 SOLVING FOR HEAD 
                                                   Max.-Head-Change                         Max.-Flux-Residual
  Residual-Control   Outer-Iter.   Inner-Iter.     Column Row Layer    Maximum-Head-Change  Column Row Layer    Maximum-Flux-Residual          L2-NORM 
          0                 1           2             4    7     1       0.4654349866E-01       4    7    1         0.2464294325E+01      0.4471054133E+01
          0                 2           2             4    7     1      -0.4958398526E-02       4    7    1        -0.2783559553E+00      0.4289284968E+00
          0                 3           2             4    7     1       0.7347782995E-03       4    7    1         0.4093444611E-01      0.7999639293E-01
          0                 4           2             4    8     1       0.1304457796E-03       4    8    1         0.6951862735E-02      0.1430180212E-01
          0                 5           1             4    8     1       0.8712495927E-04       4    8    1         0.4610608388E-02      0.1080733944E-01

    ------------------------------------------------
       NWT REQUIRED            5 OUTER ITERATIONS 
       AND A TOTAL OF          9 INNER ITERATIONS.
    ------------------------------------------------

 NO OUTPUT CONTROL FOR STRESS PERIOD   47   TIME STEP    2
 
 SOLVING FOR HEAD 
                                                   Max.-Head-Change                         Max.-Flux-Residual
  Residual-Control   Outer-Iter.   Inner-Iter.     Column Row Layer    Maximum-Head-Change  Column Row Layer    Maximum-Flux-Residual          L2-NORM 
          0                 1           2             4    7     1       0.4584833454E-01       4    7    1         0.2427849936E+01      0.4386848518E+01
          0                 2           2             4    7     1      -0.4892709647E-02       4    7    1        -0.2746196885E+00      0.4215215759E+00
          0                 3           2             4    7     1       0.7274707975E-03       4    7    1         0.4052953754E-01      0.7910571682E-01
          0                 4           2             4    8     1       0.1138107725E-03       4    8    1         0.6072613439E-02      0.1233550686E-01
          0                 5           1             4    8     1       0.5447602393E-04       4    8    1         0.2885053913E-02      0.6771209248E-02

    ------------------------------------------------
       NWT REQUIRED            5 OUTER ITERATIONS 
       AND A TOTAL OF          9 INNER ITERATIONS.
    ------------------------------------------------

 NO OUTPUT CONTROL FOR STRESS PERIOD   47   TIME STEP    3
 
 SOLVING FOR HEAD 
                                                   Max.-Head-Change                         Max.-Flux-Residual
  Residual-Control   Outer-Iter.   Inner-Iter.     Column Row Layer    Maximum-Head-Change  Column Row Layer    Maximum-Flux-Residual          L2-NORM 
          0                 1           2             4    7     1       0.4515618526E-01       4    7    1         0.2391516902E+01      0.4305551347E+01
          0                 2           2             4    7     1      -0.4830261929E-02       4    7    1        -0.2710606934E+00      0.4144069233E+00
          0                 3           2             4    7     1       0.7247977060E-03       4    7    1         0.4038075960E-01      0.7880515645E-01
          0                 4           2             4    8     1       0.1136703232E-03       4    8    1         0.6064801922E-02      0.1233322580E-01
          0                 5           1             4    8     1       0.5423304217E-04       4    8    1         0.2872205169E-02      0.6739315232E-02

    ------------------------------------------------
       NWT REQUIRED            5 OUTER ITERATIONS 
       AND A TOTAL OF          9 INNER ITERATIONS.
    ------------------------------------------------

 NO OUTPUT CONTROL FOR STRESS PERIOD   47   TIME STEP    4
 
 SOLVING FOR HEAD 
                                                   Max.-Head-Change                         Max.-Flux-Residual
  Residual-Control   Outer-Iter.   Inner-Iter.     Column Row Layer    Maximum-Head-Change  Column Row Layer    Maximum-Flux-Residual          L2-NORM 
          0                 1           2             4    7     1       0.4446803672E-01       4    7    1         0.2355353688E+01      0.4226901585E+01
          0                 2           2             4    7     1      -0.4765768965E-02       4    7    1        -0.2673951983E+00      0.4074572638E+00
          0                 3           2             4    7     1       0.7189514124E-03       4    7    1         0.4005609341E-01      0.7812254341E-01
          0                 4           2             4    8     1       0.1132268263E-03       4    8    1         0.6040723897E-02      0.1229861102E-01
          0                 5           1             4    8     1       0.5448370296E-04       4    8    1         0.2885407990E-02      0.6773250428E-02

    ------------------------------------------------
       NWT REQUIRED            5 OUTER ITERATIONS 
       AND A TOTAL OF          9 INNER ITERATIONS.
    ------------------------------------------------

 NO OUTPUT CONTROL FOR STRESS PERIOD   47   TIME STEP    5
 
 SOLVING FOR HEAD 
                                                   Max.-Head-Change                         Max.-Flux-Residual
  Residual-Control   Outer-Iter.   Inner-Iter.     Column Row Layer    Maximum-Head-Change  Column Row Layer    Maximum-Flux-Residual          L2-NORM 
          0                 1           2             4    7     1       0.4378453929E-01       4    7    1         0.2319398230E+01      0.4150750296E+01
          0                 2           2             4    7     1      -0.4704960312E-02       4    7    1        -0.2639310706E+00      0.4008718516E+00
          0                 3           2             4    7     1       0.7180589411E-03       4    7    1         0.4000522055E-01      0.7809251634E-01
          0                 4           2             4    8     1       0.1130320306E-03       4    8    1         0.6030030517E-02      0.1228352059E-01
          0                 5           1             4    8     1       0.5391516092E-04       4    8    1         0.2855292878E-02      0.6700077481E-02

    ------------------------------------------------
       NWT REQUIRED            5 OUTER ITERATIONS 
       AND A TOTAL OF          9 INNER ITERATIONS.
    ------------------------------------------------

 NO OUTPUT CONTROL FOR STRESS PERIOD   47   TIME STEP    6
 
 SOLVING FOR HEAD 
                                                   Max.-Head-Change                         Max.-Flux-Residual
  Residual-Control   Outer-Iter.   Inner-Iter.     Column Row Layer    Maximum-Head-Change  Column Row Layer    Maximum-Flux-Residual          L2-NORM 
          0                 1           2             4    7     1       0.4310655121E-01       4    7    1         0.2283699263E+01      0.4076778288E+01
          0                 2           2             4    7     1      -0.4940358560E-02       4    7    1        -0.2763673742E+00      0.4027481145E+00
          0                 3           2             4    7     1       0.1208892221E-02       4    7    1         0.6715539222E-01      0.1403162499E+00
          0                 4           1             4    8     1       0.8682533275E-04       4    8    1         0.4690525014E-02      0.9766876720E-02

    ------------------------------------------------
       NWT REQUIRED            4 OUTER ITERATIONS 
       AND A TOTAL OF          7 INNER ITERATIONS.
    ------------------------------------------------

 NO OUTPUT CONTROL FOR STRESS PERIOD   47   TIME STEP    7
 
 SOLVING FOR HEAD 
                                                   Max.-Head-Change                         Max.-Flux-Residual
  Residual-Control   Outer-Iter.   Inner-Iter.     Column Row Layer    Maximum-Head-Change  Column Row Layer    Maximum-Flux-Residual          L2-NORM 
          0                 1           2             4    7     1       0.4243478794E-01       4    7    1         0.2248302483E+01      0.4005848593E+01
          0                 2           2             4    7     1      -0.4875676535E-02       4    7    1        -0.2727016446E+00      0.3964781671E+00
          0                 3           2             4    7     1       0.1201212351E-02       4    7    1         0.6672865569E-01      0.1394510635E+00
          0                 4           1             4    8     1       0.8636327686E-04       4    8    1         0.4665352786E-02      0.9715637350E-02

    ------------------------------------------------
       NWT REQUIRED            4 OUTER ITERATIONS 
       AND A TOTAL OF          7 INNER ITERATIONS.
    ------------------------------------------------

 NO OUTPUT CONTROL FOR STRESS PERIOD   47   TIME STEP    8
 
 SOLVING FOR HEAD 
                                                   Max.-Head-Change                         Max.-Flux-Residual
  Residual-Control   Outer-Iter.   Inner-Iter.     Column Row Layer    Maximum-Head-Change  Column Row Layer    Maximum-Flux-Residual          L2-NORM 
          0                 1           2             4    7     1       0.4176946310E-01       4    7    1         0.2213217021E+01      0.3936807358E+01
          0                 2           2             4    7     1      -0.4812332549E-02       4    7    1        -0.2691110224E+00      0.3904871602E+00
          0                 3           2             4    7     1       0.1194689993E-02       4    7    1         0.6636581687E-01      0.1387184332E+00
          0                 4           1             4    8     1       0.8595649125E-04       4    8    1         0.4643216078E-02      0.9671231121E-02

    ------------------------------------------------
       NWT REQUIRED            4 OUTER ITERATIONS 
       AND A TOTAL OF          7 INNER ITERATIONS.
    ------------------------------------------------

 NO OUTPUT CONTROL FOR STRESS PERIOD   47   TIME STEP    9
 
 SOLVING FOR HEAD 
                                                   Max.-Head-Change                         Max.-Flux-Residual
  Residual-Control   Outer-Iter.   Inner-Iter.     Column Row Layer    Maximum-Head-Change  Column Row Layer    Maximum-Flux-Residual          L2-NORM 
          0                 1           2             5    8     1       0.1586612967E+00       5    8    1         0.8712177537E+01      0.9496877880E+01
          0                 2           2             5    8     1       0.6195194951E-01       5    8    1         0.3416476040E+01      0.3439006714E+01
          0                 3           2             5    8     1       0.2537525433E-01       5    8    1         0.1398470778E+01      0.1405292058E+01
          0                 4           2             5    8     1       0.1003567041E-01       5    8    1         0.5535951030E+00      0.5537768652E+00
          0                 5           1             5    8     1       0.3967846359E-02       5    8    1         0.2189175268E+00      0.2189423943E+00
          0                 6           1             5    8     1       0.1569067600E-02       5    8    1         0.8657268035E-01      0.8658071251E-01
          0                 7           1             5    8     1       0.6208193237E-03       5    8    1         0.3425309768E-01      0.3425657381E-01
          0                 8           1             5    8     1       0.2459239061E-03       5    8    1         0.1356810351E-01      0.1356996055E-01
          0                 9           1             5    8     1       0.9765912719E-04       5    8    1         0.5387605931E-02      0.5388921484E-02

    ------------------------------------------------
       NWT REQUIRED            9 OUTER ITERATIONS 
       AND A TOTAL OF         13 INNER ITERATIONS.
    ------------------------------------------------

 NO OUTPUT CONTROL FOR STRESS PERIOD   47   TIME STEP   10
 
 SOLVING FOR HEAD 
                                                   Max.-Head-Change                         Max.-Flux-Residual
  Residual-Control   Outer-Iter.   Inner-Iter.     Column Row Layer    Maximum-Head-Change  Column Row Layer    Maximum-Flux-Residual          L2-NORM 
          0                 1           2             5    8     1       0.1842185725E+00       5    8    1         0.1011121217E+02      0.1083644794E+02
          0                 2           2             5    8     1       0.7211467349E-01       5    8    1         0.3975071740E+01      0.3995166703E+01
          0                 3           2             5    8     1       0.2940950488E-01       5    8    1         0.1620061013E+01      0.1626122690E+01
          0                 4           2             5    8     1       0.1163875748E-01       5    8    1         0.6416799998E+00      0.6418588074E+00
          0                 5           2             5    8     1       0.4604937626E-02       5    8    1         0.2539214488E+00      0.2539482367E+00
          0                 6           1             5    8     1       0.1822318367E-02       5    8    1         0.1004876237E+00      0.1004965298E+00
          0                 7           1             5    8     1       0.7215416694E-03       5    8    1         0.3978731322E-01      0.3979120448E-01
          0                 8           1             5    8     1       0.2860281962E-03       5    8    1         0.1577161723E-01      0.1577370759E-01
          0                 9           1             5    8     1       0.1136668110E-03       5    8    1         0.6267095506E-02      0.6268597010E-02
          0                10           1             5    8     1       0.4540152657E-04       5    8    1         0.2502831945E-02      0.2504332956E-02

    ------------------------------------------------
       NWT REQUIRED           10 OUTER ITERATIONS 
       AND A TOTAL OF         15 INNER ITERATIONS.
    ------------------------------------------------

 NO OUTPUT CONTROL FOR STRESS PERIOD   47   TIME STEP   11
 
 SOLVING FOR HEAD 
                                                   Max.-Head-Change                         Max.-Flux-Residual
  Residual-Control   Outer-Iter.   Inner-Iter.     Column Row Layer    Maximum-Head-Change  Column Row Layer    Maximum-Flux-Residual          L2-NORM 
          0                 1           2             5    8     1       0.1662303829E+00       5    8    1         0.9100950611E+01      0.9975067802E+01
          0                 2           2             5    8     1       0.6502884761E-01       5    8    1         0.3584703365E+01      0.3607988914E+01
          0                 3           2             5    8     1       0.2660324941E-01       5    8    1         0.1465286692E+01      0.1471945208E+01
          0                 4           2             5    8     1       0.1052841445E-01       5    8    1         0.5804850998E+00      0.5806688005E+00
          0                 5           1             5    8     1       0.4165639507E-02       5    8    1         0.2297074746E+00      0.2297329974E+00
          0                 6           1             5    8     1       0.1648567617E-02       5    8    1         0.9091082978E-01      0.9091922282E-01
          0                 7           1             5    8     1       0.6528662767E-03       5    8    1         0.3600195158E-01      0.3600572906E-01
          0                 8           1             5    8     1       0.2589230654E-03       5    8    1         0.1427752923E-01      0.1427969654E-01
          0                 9           1             5    8     1       0.1029995168E-03       5    8    1         0.5679040220E-02      0.5680742124E-02
          0                10           1             5    8     1       0.4123280000E-04       5    8    1         0.2272972869E-02      0.2274824895E-02

    ------------------------------------------------
       NWT REQUIRED           10 OUTER ITERATIONS 
       AND A TOTAL OF         14 INNER ITERATIONS.
    ------------------------------------------------

 NO OUTPUT CONTROL FOR STRESS PERIOD   47   TIME STEP   12
 
 SOLVING FOR HEAD 
                                                   Max.-Head-Change                         Max.-Flux-Residual
  Residual-Control   Outer-Iter.   Inner-Iter.     Column Row Layer    Maximum-Head-Change  Column Row Layer    Maximum-Flux-Residual          L2-NORM 
          0                 1           2             5    8     1       0.1503439075E+00       5    8    1         0.8214287674E+01      0.9254917376E+01
          0                 2           2             5    8     1       0.5876780625E-01       5    8    1         0.3239685094E+01      0.3260079658E+01
          0                 3           2             5    8     1       0.2411742676E-01       5    8    1         0.1328213726E+01      0.1334240696E+01
          0                 4           2             5    8     1       0.9545214866E-02       5    8    1         0.5262455159E+00      0.5264499451E+00
          0                 5           1             5    8     1       0.3776923471E-02       5    8    1         0.2082687409E+00      0.2082960131E+00
          0                 6           1             5    8     1       0.1495028058E-02       5    8    1         0.8244196024E-01      0.8245075114E-01
          0                 7           1             5    8     1       0.5923413394E-03       5    8    1         0.3266340572E-01      0.3266758238E-01
          0                 8           1             5    8     1       0.2351671210E-03       5    8    1         0.1296696271E-01      0.1296966396E-01
          0                 9           1             5    8     1       0.9376112545E-04       5    8    1         0.5169219986E-02      0.5171685059E-02

    ------------------------------------------------
       NWT REQUIRED            9 OUTER ITERATIONS 
       AND A TOTAL OF         13 INNER ITERATIONS.
    ------------------------------------------------

 NO OUTPUT CONTROL FOR STRESS PERIOD   47   TIME STEP   13
 
 SOLVING FOR HEAD 
                                                   Max.-Head-Change                         Max.-Flux-Residual
  Residual-Control   Outer-Iter.   Inner-Iter.     Column Row Layer    Maximum-Head-Change  Column Row Layer    Maximum-Flux-Residual          L2-NORM 
          0                 1           2             5    8     1       0.1362997486E+00       5    8    1         0.7430970508E+01      0.8651642265E+01
          0                 2           2             5    8     1       0.5323033080E-01       5    8    1         0.2934431199E+01      0.2957719503E+01
          0                 3           2             5    8     1       0.2192467827E-01       5    8    1         0.1207249732E+01      0.1214915013E+01
          0                 4           2             5    8     1       0.8677973533E-02       5    8    1         0.4784347037E+00      0.4786577647E+00
          0                 5           1             5    8     1       0.3433928038E-02       5    8    1         0.1893607392E+00      0.1893868289E+00
          0                 6           1             5    8     1       0.1359421673E-02       5    8    1         0.7496663467E-01      0.7497496885E-01
          0                 7           1             5    8     1       0.5387754462E-03       5    8    1         0.2971050656E-01      0.2971461756E-01
          0                 8           1             5    8     1       0.2140468618E-03       5    8    1         0.1180261056E-01      0.1180548555E-01
          0                 9           1             5    8     1       0.8546625285E-04       5    8    1         0.4711870671E-02      0.4714691468E-02

    ------------------------------------------------
       NWT REQUIRED            9 OUTER ITERATIONS 
       AND A TOTAL OF         13 INNER ITERATIONS.
    ------------------------------------------------

 NO OUTPUT CONTROL FOR STRESS PERIOD   47   TIME STEP   14
 
 SOLVING FOR HEAD 
                                                   Max.-Head-Change                         Max.-Flux-Residual
  Residual-Control   Outer-Iter.   Inner-Iter.     Column Row Layer    Maximum-Head-Change  Column Row Layer    Maximum-Flux-Residual          L2-NORM 
          0                 1           2             5    8     1       0.1238770839E+00       5    8    1         0.6738481981E+01      0.8144095116E+01
          0                 2           2             5    8     1       0.4832997760E-01       5    8    1         0.2664389636E+01      0.2691554992E+01
          0                 3           2             5    8     1       0.1998332634E-01       5    8    1         0.1100180064E+01      0.1108517636E+01
          0                 4           2             5    8     1       0.7910097507E-02       5    8    1         0.4361034222E+00      0.4363349038E+00
          0                 5           1             5    8     1       0.3130250465E-02       5    8    1         0.1726193982E+00      0.1726447863E+00
          0                 6           1             5    8     1       0.1239377830E-02       5    8    1         0.6834873017E-01      0.6835678066E-01
          0                 7           1             5    8     1       0.4913654449E-03       5    8    1         0.2709676267E-01      0.2710092037E-01
          0                 8           1             5    8     1       0.1953603318E-03       5    8    1         0.1077234568E-01      0.1077543520E-01
          0                 9           1             5    8     1       0.7813389833E-04       5    8    1         0.4307551440E-02      0.4310810086E-02

    ------------------------------------------------
       NWT REQUIRED            9 OUTER ITERATIONS 
       AND A TOTAL OF         13 INNER ITERATIONS.
    ------------------------------------------------

 NO OUTPUT CONTROL FOR STRESS PERIOD   47   TIME STEP   15
 
 SOLVING FOR HEAD 
                                                   Max.-Head-Change                         Max.-Flux-Residual
  Residual-Control   Outer-Iter.   Inner-Iter.     Column Row Layer    Maximum-Head-Change  Column Row Layer    Maximum-Flux-Residual          L2-NORM 
          0                 1           2             5    8     1       0.1128768460E+00       5    8    1         0.6125792754E+01      0.7718121923E+01
          0                 2           2             5    8     1       0.4393970122E-01       5    8    1         0.2424869340E+01      0.2456159823E+01
          0                 3           2             5    8     1       0.1822207216E-01       5    8    1         0.1003999950E+01      0.1013050187E+01
          0                 4           2             5    8     1       0.7204801457E-02       5    8    1         0.3976010036E+00      0.3978419891E+00
          0                 5           1             5    8     1       0.2847907443E-02       5    8    1         0.1572038685E+00      0.1572287292E+00
          0                 6           1             5    8     1       0.1126417112E-02       5    8    1         0.6218048500E-01      0.6218831946E-01
          0                 7           1             5    8     1       0.4462206568E-03       5    8    1         0.2463132840E-01      0.2463551780E-01
          0                 8           1             5    8     1       0.1773552018E-03       5    8    1         0.9788956904E-02      0.9792571796E-02
          0                 9           1             5    8     1       0.7098133789E-04       5    8    1         0.3916875845E-02      0.3920654488E-02

    ------------------------------------------------
       NWT REQUIRED            9 OUTER ITERATIONS 
       AND A TOTAL OF         13 INNER ITERATIONS.
    ------------------------------------------------

 NO OUTPUT CONTROL FOR STRESS PERIOD   47   TIME STEP   16
 
 SOLVING FOR HEAD 
                                                   Max.-Head-Change                         Max.-Flux-Residual
  Residual-Control   Outer-Iter.   Inner-Iter.     Column Row Layer    Maximum-Head-Change  Column Row Layer    Maximum-Flux-Residual          L2-NORM 
          0                 1           2             5    8     1      -0.5106969065E-01       5    8    1        -0.2927703180E+01      0.5618915979E+01
          0                 2           2             4    6     1      -0.3471786749E-02       4    6    1        -0.1972441591E+00      0.4014770825E+00
          0                 3           2             4    7     1       0.1091825443E-02       4    6    1         0.5949199760E-01      0.1331650218E+00
          0                 4           1             4    7     1       0.9678283239E-04       4    7    1         0.5157473886E-02      0.1044627571E-01

    ------------------------------------------------
       NWT REQUIRED            4 OUTER ITERATIONS 
       AND A TOTAL OF          7 INNER ITERATIONS.
    ------------------------------------------------

 NO OUTPUT CONTROL FOR STRESS PERIOD   47   TIME STEP   17
 
 SOLVING FOR HEAD 
                                                   Max.-Head-Change                         Max.-Flux-Residual
  Residual-Control   Outer-Iter.   Inner-Iter.     Column Row Layer    Maximum-Head-Change  Column Row Layer    Maximum-Flux-Residual          L2-NORM 
          0                 1           2             5    8     1      -0.7561161980E-01       5    8    1        -0.4275428811E+01      0.6274818148E+01
          0                 2           2             5    8     1       0.6632871734E-02       5    8    1         0.3754289259E+00      0.5200257147E+00
          0                 3           2             4    7     1       0.1089378685E-02       4    6    1         0.5950341520E-01      0.1279267275E+00
          0                 4           1             4    7     1       0.9642071762E-04       4    7    1         0.5141048036E-02      0.1005222769E-01

    ------------------------------------------------
       NWT REQUIRED            4 OUTER ITERATIONS 
       AND A TOTAL OF          7 INNER ITERATIONS.
    ------------------------------------------------

 NO OUTPUT CONTROL FOR STRESS PERIOD   47   TIME STEP   18
 
 SOLVING FOR HEAD 
                                                   Max.-Head-Change                         Max.-Flux-Residual
  Residual-Control   Outer-Iter.   Inner-Iter.     Column Row Layer    Maximum-Head-Change  Column Row Layer    Maximum-Flux-Residual          L2-NORM 
          0                 1           2             5    8     1      -0.6943149931E-01       5    8    1        -0.3921701695E+01      0.5883505875E+01
          0                 2           2             5    8     1       0.6105367929E-02       5    8    1         0.3455760419E+00      0.4885198162E+00
          0                 3           2             4    7     1       0.1085534913E-02       4    6    1         0.5949532689E-01      0.1273630797E+00
          0                 4           1             4    7     1       0.9595204792E-04       4    7    1         0.5117649998E-02      0.9989874637E-02

    ------------------------------------------------
       NWT REQUIRED            4 OUTER ITERATIONS 
       AND A TOTAL OF          7 INNER ITERATIONS.
    ------------------------------------------------

 NO OUTPUT CONTROL FOR STRESS PERIOD   47   TIME STEP   19
 
 SOLVING FOR HEAD 
                                                   Max.-Head-Change                         Max.-Flux-Residual
  Residual-Control   Outer-Iter.   Inner-Iter.     Column Row Layer    Maximum-Head-Change  Column Row Layer    Maximum-Flux-Residual          L2-NORM 
          0                 1           2             4    8     1       0.1806496115E+00       4    8    1         0.9841416389E+01      0.1111401290E+02
          0                 2           2             4    8     1       0.7182681308E-01       4    8    1         0.3899300391E+01      0.3924988745E+01
          0                 3           2             4    8     1       0.2974681701E-01       4    8    1         0.1616016145E+01      0.1620503636E+01
          0                 4           2             4    8     1       0.1196220214E-01       4    8    1         0.6503111174E+00      0.6504257694E+00
          0                 5           2             4    8     1       0.4810511629E-02       4    8    1         0.2615232752E+00      0.2615375023E+00
          0                 6           2             4    8     1       0.1935248287E-02       4    8    1         0.1052113922E+00      0.1052161968E+00
          0                 7           2             4    8     1       0.7792111065E-03       4    8    1         0.4236146797E-01      0.4236397795E-01
          0                 8           2             4    8     1       0.3143029364E-03       4    8    1         0.1708607632E-01      0.1708792707E-01
          0                 9           2             4    8     1       0.1272449046E-03       4    8    1         0.6916527357E-02      0.6918465369E-02
          0                10           1             4    8     1       0.5190201600E-04       4    8    1         0.2820579665E-02      0.2823174056E-02

    ------------------------------------------------
       NWT REQUIRED           10 OUTER ITERATIONS 
       AND A TOTAL OF         19 INNER ITERATIONS.
    ------------------------------------------------

 NO OUTPUT CONTROL FOR STRESS PERIOD   47   TIME STEP   20
 
 SOLVING FOR HEAD 
                                                   Max.-Head-Change                         Max.-Flux-Residual
  Residual-Control   Outer-Iter.   Inner-Iter.     Column Row Layer    Maximum-Head-Change  Column Row Layer    Maximum-Flux-Residual          L2-NORM 
          0                 1           2             4    8     1       0.2063513681E+00       4    8    1         0.1122290591E+02      0.1470571907E+02
          0                 2           2             4    8     1       0.8253365702E-01       4    8    1         0.4473995911E+01      0.5550497168E+01
          0                 3           2             4    8     1       0.3412574156E-01       4    8    1         0.1850510056E+01      0.2284674354E+01
          0                 4           2             4    8     1       0.1375533291E-01       4    8    1         0.7463408851E+00      0.9143072826E+00
          0                 5           2             4    8     1       0.5544742331E-02       4    8    1         0.3008526212E+00      0.3660796630E+00
          0                 6           2             4    8     1       0.2234356281E-02       4    8    1         0.1213027731E+00      0.1466550902E+00
          0                 7           2             4    8     1       0.9010796224E-03       4    8    1         0.4891885923E-01      0.5879264709E-01
          0                 8           2             4    8     1       0.3639921528E-03       4    8    1         0.1976009453E-01      0.2361896840E-01
          0                 9           2             4    8     1       0.1475370340E-03       4    8    1         0.8008684941E-02      0.9528238898E-02
          0                10           1             4    8     1       0.6021843255E-04       4    8    1         0.3268222175E-02      0.3876497684E-02

    ------------------------------------------------
       NWT REQUIRED           10 OUTER ITERATIONS 
       AND A TOTAL OF         19 INNER ITERATIONS.
    ------------------------------------------------

 NO OUTPUT CONTROL FOR STRESS PERIOD   47   TIME STEP   21
 
 SOLVING FOR HEAD 
                                                   Max.-Head-Change                         Max.-Flux-Residual
  Residual-Control   Outer-Iter.   Inner-Iter.     Column Row Layer    Maximum-Head-Change  Column Row Layer    Maximum-Flux-Residual          L2-NORM 
          0                 1           2             5    7     1       0.1990951050E+00       5    7    1         0.1095953341E+02      0.1567698051E+02
          0                 2           2             5    7     1       0.7785967502E-01       5    7    1         0.4292630064E+01      0.5961596625E+01
          0                 3           2             5    7     1       0.3159348946E-01       5    7    1         0.1741490783E+01      0.2440687240E+01
          0                 4           2             4    8     1       0.1266561725E-01       5    7    1         0.6883663804E+00      0.9730815485E+00
          0                 5           2             4    8     1       0.5103125630E-02       4    8    1         0.2770028916E+00      0.3878511857E+00
          0                 6           2             4    8     1       0.2056910863E-02       4    8    1         0.1116565439E+00      0.1547462661E+00
          0                 7           2             4    8     1       0.8298342506E-03       4    8    1         0.4504564966E-01      0.6181171677E-01
          0                 8           2             4    8     1       0.3354255988E-03       4    8    1         0.1820710415E-01      0.2474569701E-01
          0                 9           2             4    8     1       0.1361155147E-03       4    8    1         0.7387734995E-02      0.9950751773E-02
          0                10           1             4    8     1       0.5568004836E-04       4    8    1         0.3021450394E-02      0.4037522203E-02

    ------------------------------------------------
       NWT REQUIRED           10 OUTER ITERATIONS 
       AND A TOTAL OF         19 INNER ITERATIONS.
    ------------------------------------------------

 NO OUTPUT CONTROL FOR STRESS PERIOD   47   TIME STEP   22
 
 SOLVING FOR HEAD 
                                                   Max.-Head-Change                         Max.-Flux-Residual
  Residual-Control   Outer-Iter.   Inner-Iter.     Column Row Layer    Maximum-Head-Change  Column Row Layer    Maximum-Flux-Residual          L2-NORM 
          0                 1           2             5    7     1       0.1789795015E+00       5    7    1         0.9832286833E+01      0.1438299481E+02
          0                 2           2             4    8     1       0.7006897347E-01       5    7    1         0.3856300589E+01      0.5429826205E+01
          0                 3           2             4    8     1       0.2908138141E-01       4    8    1         0.1577301152E+01      0.2227589611E+01
          0                 4           2             4    8     1       0.1171616607E-01       4    8    1         0.6360049658E+00      0.8879546738E+00
          0                 5           2             4    8     1       0.4720471086E-02       4    8    1         0.2562488934E+00      0.3541307939E+00
          0                 6           2             4    8     1       0.1902780649E-02       4    8    1         0.1032944203E+00      0.1413430517E+00
          0                 7           2             4    8     1       0.7677959874E-03       4    8    1         0.4167991380E-01      0.5648773068E-01
          0                 8           2             4    8     1       0.3104919151E-03       4    8    1         0.1685430676E-01      0.2263318683E-01
          0                 9           2             4    8     1       0.1261253559E-03       4    8    1         0.6845663092E-02      0.9114800030E-02
          0                10           1             4    8     1       0.5170242389E-04       4    8    1         0.2805585805E-02      0.3708765280E-02

    ------------------------------------------------
       NWT REQUIRED           10 OUTER ITERATIONS 
       AND A TOTAL OF         19 INNER ITERATIONS.
    ------------------------------------------------

 NO OUTPUT CONTROL FOR STRESS PERIOD   47   TIME STEP   23
 
 SOLVING FOR HEAD 
                                                   Max.-Head-Change                         Max.-Flux-Residual
  Residual-Control   Outer-Iter.   Inner-Iter.     Column Row Layer    Maximum-Head-Change  Column Row Layer    Maximum-Flux-Residual          L2-NORM 
          0                 1           2             4    8     1       0.1627896476E+00       5    7    1         0.8837475421E+01      0.1366850941E+02
          0                 2           2             4    8     1       0.6481234015E-01       4    8    1         0.3517011483E+01      0.5176022108E+01
          0                 3           2             4    8     1       0.2696090945E-01       4    8    1         0.1462144726E+01      0.2147940910E+01
          0                 4           2             4    8     1       0.1086196759E-01       4    8    1         0.5896589205E+00      0.8622088220E+00
          0                 5           2             4    8     1       0.4376432095E-02       4    8    1         0.2375792195E+00      0.3462340006E+00
          0                 6           2             4    8     1       0.1764274965E-02       4    8    1         0.9577783965E-01      0.1391638689E+00
          0                 7           2             4    8     1       0.7120825714E-03       4    8    1         0.3865611272E-01      0.5602062819E-01
          0                 8           2             4    8     1       0.2881169154E-03       4    8    1         0.1563978960E-01      0.2261965686E-01
          0                 9           2             4    8     1       0.1171702962E-03       4    8    1         0.6359505275E-02      0.9188989578E-02
          0                10           1             4    8     1       0.4814243121E-04       4    8    1         0.2612272219E-02      0.3779030976E-02

    ------------------------------------------------
       NWT REQUIRED           10 OUTER ITERATIONS 
       AND A TOTAL OF         19 INNER ITERATIONS.
    ------------------------------------------------

 NO OUTPUT CONTROL FOR STRESS PERIOD   47   TIME STEP   24
 
 SOLVING FOR HEAD 
                                                   Max.-Head-Change                         Max.-Flux-Residual
  Residual-Control   Outer-Iter.   Inner-Iter.     Column Row Layer    Maximum-Head-Change  Column Row Layer    Maximum-Flux-Residual          L2-NORM 
          0                 1           2             5    6     1       0.2121926384E+00       5    6    1         0.1155061217E+02      0.1688501407E+02
          0                 2           2             5    6     1       0.8401822443E-01       5    6    1         0.4590456299E+01      0.6535654782E+01
          0                 3           2             5    6     1       0.3445281282E-01       5    6    1         0.1879091632E+01      0.2713183589E+01
          0                 4           2             5    6     1       0.1379160415E-01       5    6    1         0.7525017211E+00      0.1096102929E+01
          0                 5           2             5    6     1       0.5523482507E-02       5    6    1         0.3012928295E+00      0.4431084707E+00
          0                 6           2             5    6     1       0.2213758954E-02       5    6    1         0.1207310384E+00      0.1793793805E+00
          0                 7           2             5    6     1       0.8883741188E-03       5    6    1         0.4843804156E-01      0.7275545363E-01
          0                 8           2             5    6     1       0.3573385793E-03       5    6    1         0.1947880621E-01      0.2960538432E-01
          0                 9           2             5    6     1       0.1443933441E-03       5    6    1         0.7868648423E-02      0.1211893847E-01
          0                10           1             5    6     1       0.5887658742E-04       5    6    1         0.3207199902E-02      0.5017877230E-02

    ------------------------------------------------
       NWT REQUIRED           10 OUTER ITERATIONS 
       AND A TOTAL OF         19 INNER ITERATIONS.
    ------------------------------------------------

 NO OUTPUT CONTROL FOR STRESS PERIOD   47   TIME STEP   25
 
 SOLVING FOR HEAD 
                                                   Max.-Head-Change                         Max.-Flux-Residual
  Residual-Control   Outer-Iter.   Inner-Iter.     Column Row Layer    Maximum-Head-Change  Column Row Layer    Maximum-Flux-Residual          L2-NORM 
          0                 1           2             4    7     1       0.2578844957E+00       4    7    1         0.1379806504E+02      0.2065610799E+02
          0                 2           2             4    7     1       0.1046402294E+00       4    7    1         0.5612262345E+01      0.8292618450E+01
          0                 3           2             4    7     1       0.4368164421E-01       4    7    1         0.2339291812E+01      0.3473061088E+01
          0                 4           2             4    7     1       0.1789081621E-01       4    7    1         0.9582450364E+00      0.1421896505E+01
          0                 5           2             4    7     1       0.7331054236E-02       4    7    1         0.3925504949E+00      0.5822673562E+00
          0                 6           2             4    7     1       0.3005956862E-02       4    7    1         0.1609225671E+00      0.2386548641E+00
          0                 7           2             4    7     1       0.1233786935E-02       4    7    1         0.6603563440E-01      0.9794040067E-01
          0                 8           2             4    7     1       0.5073096531E-03       4    7    1         0.2714628330E-01      0.4028423080E-01
          0                 9           2             4    7     1       0.2092970263E-03       4    7    1         0.1119651498E-01      0.1664036460E-01
          0                10           1             4    7     1       0.8691005424E-04       4    7    1         0.4647660237E-02      0.6930991940E-02

    ------------------------------------------------
       NWT REQUIRED           10 OUTER ITERATIONS 
       AND A TOTAL OF         19 INNER ITERATIONS.
    ------------------------------------------------

 NO OUTPUT CONTROL FOR STRESS PERIOD   47   TIME STEP   26
 
 SOLVING FOR HEAD 
                                                   Max.-Head-Change                         Max.-Flux-Residual
  Residual-Control   Outer-Iter.   Inner-Iter.     Column Row Layer    Maximum-Head-Change  Column Row Layer    Maximum-Flux-Residual          L2-NORM 
          0                 1           2             4    7     1       0.2439498817E+00       4    7    1         0.1303681626E+02      0.1965395033E+02
          0                 2           2             4    7     1       0.9839482002E-01       4    7    1         0.5308228361E+01      0.7265442064E+01
          0                 3           2             4    7     1       0.4073580499E-01       4    7    1         0.2196578672E+01      0.3015300579E+01
          0                 4           2             4    7     1       0.1653562561E-01       4    7    1         0.8921290821E+00      0.1225580444E+01
          0                 5           2             4    7     1       0.6714691306E-02       4    7    1         0.3621852337E+00      0.4983123327E+00
          0                 6           2             4    7     1       0.2728498408E-02       4    7    1         0.1471434495E+00      0.2027760009E+00
          0                 7           2             4    7     1       0.1109965443E-02       4    7    1         0.5984572212E-01      0.8262060093E-01
          0                 8           2             4    7     1       0.4524621137E-03       4    7    1         0.2438950577E-01      0.3374402169E-01
          0                 9           2             4    7     1       0.1851641452E-03       4    7    1         0.9978166775E-02      0.1384592174E-01
          0                10           1             4    7     1       0.7635993986E-04       4    7    1         0.4113212315E-02      0.5733761298E-02

    ------------------------------------------------
       NWT REQUIRED           10 OUTER ITERATIONS 
       AND A TOTAL OF         19 INNER ITERATIONS.
    ------------------------------------------------

 NO OUTPUT CONTROL FOR STRESS PERIOD   47   TIME STEP   27
 
 SOLVING FOR HEAD 
                                                   Max.-Head-Change                         Max.-Flux-Residual
  Residual-Control   Outer-Iter.   Inner-Iter.     Column Row Layer    Maximum-Head-Change  Column Row Layer    Maximum-Flux-Residual          L2-NORM 
          0                 1           2             4    7     1       0.2275461749E+00       4    7    1         0.1227248537E+02      0.1756628829E+02
          0                 2           2             4    7     1       0.9144176978E-01       4    7    1         0.4937135603E+01      0.6793897334E+01
          0                 3           2             4    7     1       0.3795502343E-01       4    7    1         0.2046229534E+01      0.2823451581E+01
          0                 4           2             4    7     1       0.1541091736E-01       4    7    1         0.8312531628E+00      0.1147433382E+01
          0                 5           2             4    7     1       0.6260267586E-02       4    7    1         0.3375794393E+00      0.4664383157E+00
          0                 6           2             4    7     1       0.2544860401E-02       4    7    1         0.1372045468E+00      0.1897805766E+00
          0                 7           2             4    7     1       0.1035754030E-02       4    7    1         0.5583082864E-01      0.7732339985E-01
          0                 8           2             4    7     1       0.4224865028E-03       4    7    1         0.2276844878E-01      0.3158677160E-01
          0                 9           2             4    7     1       0.1730747332E-03       4    7    1         0.9324634640E-02      0.1296930692E-01
          0                10           1             4    7     1       0.7150240173E-04       4    7    1         0.3850722788E-02      0.5379370248E-02

    ------------------------------------------------
       NWT REQUIRED           10 OUTER ITERATIONS 
       AND A TOTAL OF         19 INNER ITERATIONS.
    ------------------------------------------------

 NO OUTPUT CONTROL FOR STRESS PERIOD   47   TIME STEP   28
 
 SOLVING FOR HEAD 
                                                   Max.-Head-Change                         Max.-Flux-Residual
  Residual-Control   Outer-Iter.   Inner-Iter.     Column Row Layer    Maximum-Head-Change  Column Row Layer    Maximum-Flux-Residual          L2-NORM 
          0                 1           2             4    7     1       0.2098422565E+00       4    7    1         0.1143560667E+02      0.1517667906E+02
          0                 2           2             4    7     1       0.8301079260E-01       4    7    1         0.4533267228E+01      0.5594879421E+01
          0                 3           2             4    7     1       0.3406781263E-01       4    7    1         0.1856354667E+01      0.2276236190E+01
          0                 4           2             4    7     1       0.1364027549E-01       4    7    1         0.7441045753E+00      0.9067722635E+00
          0                 5           2             4    7     1       0.5462414507E-02       4    7    1         0.2979640635E+00      0.3613116397E+00
          0                 6           2             4    7     1       0.2188734339E-02       4    7    1         0.1193915633E+00      0.1440911876E+00
          0                 7           2             4    7     1       0.8780684832E-03       4    7    1         0.4789488719E-01      0.5754840059E-01
          0                 8           2             4    7     1       0.3531498472E-03       4    7    1         0.1926091664E-01      0.2305323718E-01
          0                 9           1             4    7     1       0.1427737603E-03       4    7    1         0.7785294250E-02      0.9291745025E-02
          0                10           1             4    7     1       0.5833683354E-04       4    7    1         0.3179669606E-02      0.3792601204E-02

    ------------------------------------------------
       NWT REQUIRED           10 OUTER ITERATIONS 
       AND A TOTAL OF         18 INNER ITERATIONS.
    ------------------------------------------------

 NO OUTPUT CONTROL FOR STRESS PERIOD   47   TIME STEP   29
 
 SOLVING FOR HEAD 
                                                   Max.-Head-Change                         Max.-Flux-Residual
  Residual-Control   Outer-Iter.   Inner-Iter.     Column Row Layer    Maximum-Head-Change  Column Row Layer    Maximum-Flux-Residual          L2-NORM 
          0                 1           2             4    7     1       0.1912534933E+00       4    7    1         0.1044335908E+02      0.1411825497E+02
          0                 2           2             4    7     1       0.7571505780E-01       4    7    1         0.4129720895E+01      0.5067088680E+01
          0                 3           2             4    7     1       0.3113655555E-01       4    7    1         0.1697308334E+01      0.2069454278E+01
          0                 4           2             4    7     1       0.1246632416E-01       4    7    1         0.6800627481E+00      0.8239912790E+00
          0                 5           2             4    7     1       0.4992689611E-02       4    7    1         0.2723306584E+00      0.3281946800E+00
          0                 6           2             4    7     1       0.2000844320E-02       4    7    1         0.1091383805E+00      0.1308522651E+00
          0                 7           2             4    7     1       0.8029463239E-03       4    7    1         0.4379532384E-01      0.5225917866E-01
          0                 8           2             4    7     1       0.3231434929E-03       4    7    1         0.1762332696E-01      0.2094266478E-01
          0                 9           1             4    7     1       0.1308120647E-03       4    7    1         0.7132405492E-02      0.8451540142E-02
          0                10           1             4    7     1       0.5358784722E-04       4    7    1         0.2920392666E-02      0.3460011769E-02

    ------------------------------------------------
       NWT REQUIRED           10 OUTER ITERATIONS 
       AND A TOTAL OF         18 INNER ITERATIONS.
    ------------------------------------------------

 NO OUTPUT CONTROL FOR STRESS PERIOD   47   TIME STEP   30



 STREAM LISTING     PERIOD     47   STEP       30

 LAYER ROW COL. STREAM  RCH.  FLOW INTO     FLOW TO   FLOW OUT OF   OVRLND.     DIRECT     STREAM       STREAM     STREAM     STREAM   STREAMBED  STREAMBED
                SEG.NO.  NO.  STRM. RCH.    AQUIFER    STRM. RCH.    RUNOFF     PRECIP       ET          HEAD       DEPTH      WIDTH   CONDCTNC.   GRADIENT

   1    1    1     1     1    1.5942E+01  1.9373E-01   1.5748E+01  0.000E+00  0.000E+00  0.000E+00  1.09408E+03  1.028E+00  1.069E+01  4.809E-02  1.343E+00
   1    2    2     1     2    1.5748E+01  2.9868E-01   1.5450E+01  0.000E+00  0.000E+00  0.000E+00  1.08908E+03  1.024E+00  1.060E+01  7.423E-02  1.341E+00
   1    3    3     1     3    1.5450E+01  2.5341E-01   1.5196E+01  0.000E+00  0.000E+00  0.000E+00  1.08344E+03  1.018E+00  1.051E+01  6.306E-02  1.339E+00
   1    3    4     1     4    1.5196E+01  2.3228E-01   1.4964E+01  0.000E+00  0.000E+00  0.000E+00  1.07842E+03  1.014E+00  1.043E+01  5.787E-02  1.338E+00
   1    4    5     2     1    1.2964E+01  2.9708E-01   1.2667E+01  0.000E+00  0.000E+00  0.000E+00  1.07274E+03  8.087E-01  1.200E+01  7.800E-02  1.270E+00
   1    5    6     2     2    1.2667E+01  2.2792E-01   1.2439E+01  0.000E+00  0.000E+00  0.000E+00  1.06731E+03  7.987E-01  1.200E+01  6.000E-02  1.266E+00
   1    6    6     2     3    1.2439E+01  2.2740E-01   1.2211E+01  0.000E+00  0.000E+00  0.000E+00  1.06258E+03  7.900E-01  1.200E+01  6.000E-02  1.263E+00
   1    7    6     2     4    1.2211E+01  2.2687E-01   1.1985E+01  0.000E+00  0.000E+00  0.000E+00  1.05786E+03  7.812E-01  1.200E+01  6.000E-02  1.260E+00
   1    8    6     2     5    1.1985E+01  2.2634E-01   1.1758E+01  0.000E+00  0.000E+00  0.000E+00  1.05313E+03  7.724E-01  1.200E+01  6.000E-02  1.257E+00
   1    3    5     3     1    2.0000E+00  2.8252E-01   1.7175E+00  0.000E+00  0.000E+00  0.000E+00  1.07555E+03  1.909E+00  9.636E+00  7.227E-02  1.955E+00
   1    3    6     3     2    1.7175E+00  2.4905E-01   1.4684E+00  0.000E+00  0.000E+00  0.000E+00  1.07264E+03  1.727E+00  8.909E+00  6.682E-02  1.864E+00
   1    3    7     3     3    1.4684E+00  1.9718E-01   1.2712E+00  0.000E+00  0.000E+00  0.000E+00  1.06987E+03  1.555E+00  8.218E+00  5.547E-02  1.777E+00
   1    4    8     3     4    1.2712E+00  2.2567E-01   1.0456E+00  0.000E+00  0.000E+00  0.000E+00  1.06682E+03  1.364E+00  7.455E+00  6.709E-02  1.682E+00
   1    5    8     3     5    1.0456E+00  1.5790E-01   8.8768E-01  0.000E+00  0.000E+00  0.000E+00  1.06362E+03  1.164E+00  6.655E+00  4.991E-02  1.582E+00
   1    6    8     3     6    8.8768E-01  5.5980E-02   8.3170E-01  0.000E+00  0.000E+00  0.000E+00  1.06158E+03  1.036E+00  6.145E+00  1.844E-02  1.518E+00
   1    5   10     4     1    1.0000E+01  9.0919E-02   9.9091E+00  0.000E+00  0.000E+00  0.000E+00  1.07836E+03  6.368E-01  1.000E+01  2.500E-02  1.212E+00
   1    5    9     4     2    9.9091E+00  1.8158E-01   9.7275E+00  0.000E+00  0.000E+00  0.000E+00  1.07154E+03  6.315E-01  1.000E+01  5.000E-02  1.211E+00
   1    6    8     4     3    9.7275E+00  1.2689E-01   9.6006E+00  0.000E+00  0.000E+00  0.000E+00  1.06381E+03  6.256E-01  1.000E+01  3.500E-02  1.209E+00
   1    6    8     5     1    1.0432E+01  2.2686E-01   1.0205E+01  0.000E+00  0.000E+00  0.000E+00  1.05868E+03  6.790E-01  1.542E+01  6.166E-02  1.226E+00
   1    7    7     5     2    1.0205E+01  2.7894E-01   9.9265E+00  0.000E+00  0.000E+00  0.000E+00  1.05417E+03  6.732E-01  1.519E+01  7.594E-02  1.224E+00
   1    8    7     5     3    9.9265E+00  1.9221E-01   9.7343E+00  0.000E+00  0.000E+00  0.000E+00  1.04992E+03  6.676E-01  1.497E+01  5.241E-02  1.223E+00
   1    8    6     5     4    9.7343E+00  1.3577E-01   9.5985E+00  0.000E+00  0.000E+00  0.000E+00  1.04691E+03  6.637E-01  1.482E+01  3.706E-02  1.221E+00
   1    9    6     6     1    2.0781E+01  2.4534E-01   2.0536E+01  0.000E+00  0.000E+00  0.000E+00  1.04382E+03  1.089E+00  1.200E+01  6.000E-02  1.363E+00
   1   10    7     6     2    2.0536E+01  2.4488E-01   2.0291E+01  0.000E+00  0.000E+00  0.000E+00  1.03926E+03  1.081E+00  1.200E+01  6.000E-02  1.360E+00
   1   11    7     6     3    2.0291E+01  2.4441E-01   2.0047E+01  0.000E+00  0.000E+00  0.000E+00  1.03471E+03  1.074E+00  1.200E+01  6.000E-02  1.358E+00
   1   12    7     6     4    2.0047E+01  2.4394E-01   1.9803E+01  0.000E+00  0.000E+00  0.000E+00  1.03016E+03  1.066E+00  1.200E+01  6.000E-02  1.355E+00
   1   13    7     6     5    1.9803E+01  1.2218E-03   1.9802E+01  0.000E+00  0.000E+00  0.000E+00  1.02697E+03  1.062E+00  1.200E+01  2.400E-02  1.697E-02
   1   14    9     7     1    1.5000E+02  1.3548E+00   1.4865E+02  0.000E+00  0.000E+00  0.000E+00  1.03987E+03  2.288E+00  5.529E+01  5.593E-01  8.075E-01
   1   13    8     7     2    1.4865E+02  1.8881E+00   1.4676E+02  0.000E+00  0.000E+00  0.000E+00  1.03478E+03  2.279E+00  5.526E+01  6.148E-01  1.024E+00
   1   13    7     7     3    1.4676E+02  1.5464E+00   1.4521E+02  0.000E+00  0.000E+00  0.000E+00  1.02969E+03  2.270E+00  5.521E+01  5.584E-01  9.231E-01
   1   13    6     8     1    1.6501E+02  9.6468E-01   1.6405E+02  0.000E+00  0.000E+00  0.000E+00  1.02479E+03  2.916E+00  4.229E+01  4.309E-01  7.462E-01
   1   13    5     8     2    1.6405E+02  2.1509E-01   1.6383E+02  0.000E+00  0.000E+00  0.000E+00  1.01854E+03  2.912E+00  4.223E+01  4.303E-01  1.666E-01
   1   13    4     8     3    1.6383E+02 -2.3088E+00   1.6614E+02  0.000E+00  0.000E+00  0.000E+00  1.01229E+03  2.919E+00  4.233E+01  4.314E+00 -1.784E-01
   1   13    3     8     4    1.6614E+02 -3.5775E+00   1.6972E+02  0.000E+00  0.000E+00  0.000E+00  1.00606E+03  2.939E+00  4.261E+01  4.342E+00 -2.746E-01
   1   13    2     8     5    1.6972E+02 -2.5517E+00   1.7227E+02  0.000E+00  0.000E+00  0.000E+00  9.99834E+02  2.959E+00  4.290E+01  4.372E+00 -1.946E-01
   1   13    1     8     6    1.7227E+02 -1.9618E+00   1.7423E+02  0.000E+00  0.000E+00  0.000E+00  9.94848E+02  2.973E+00  4.311E+01  2.636E+00 -2.481E-01
   1    8    6     9     1    5.7536E-01  0.0000E+00   5.7536E-01  0.000E+00  0.000E+00  0.000E+00  1.07916E+03  4.077E-01  4.000E+00  0.000E+00  1.136E+00
   1    8    5     9     2    5.7536E-01  0.0000E+00   5.7536E-01  0.000E+00  0.000E+00  0.000E+00  1.07866E+03  4.077E-01  4.000E+00  0.000E+00  1.136E+00





UNSATURATED ZONE PACKAGE VOLUMETRIC BUDGET FOR  TIME STEP    30 STRESS PERIOD   47
  ------------------------------------------------------------------------------



     CUMULATIVE VOLUMES      L**3       RATES FOR THIS TIME STEP      L**3/T
     ------------------                 ------------------------

           IN:                                      IN:
           ---                                      ---
        INFILTRATION =  2451486801.7432          INFILTRATION =           4.9829

          OUT:                                     OUT:
          ----                                     ----
              UZF ET =  1984102516.0928                UZF ET =           4.2284
        UZF RECHARGE =   143405300.7457          UZF RECHARGE =          35.1392

            IN - OUT =   323978984.9047              IN - OUT =         -34.3847

          STORAGE:                                 STORAGE:
          --------                                 --------
      STORAGE CHANGE =   323980491.9069        STORAGE CHANGE =         -34.3847

 PERCENT DISCREPANCY IS DIFFERENCE BETWEEN IN-OUT MINUS CHANGE IN STORAGE
 DIVIDED BY THE AVERAGE OF IN AND OUT TIMES 100

 PERCENT DISCREPANCY =          -0.00     PERCENT DISCREPANCY =           0.00






1
  VOLUMETRIC BUDGET FOR AGRICULTURAL FIELDS AT  END OF TIME STEP   30, STRESS PERIOD  47
  ------------------------------------------------------------------------------

     CUMULATIVE VOLUMES      L**3       RATES FOR THIS TIME STEP      L**3/T
     ------------------                 ------------------------

           IN:                                      IN:
           ---                                      ---
               AG WELLS  =   737085632.0000                 AG WELLS  =       1.9264E-03
      DIVERSION SEGMENTS =  1181669376.0000        DIVERSION SEGMENTS =           0.5754
           GW IRRIGATION =           0.0000             GW IRRIGATION =           0.0000
           SW IRRIGATION =           0.0000             SW IRRIGATION =           0.0000
        SYSTEM LOSSES GW =           0.0000          SYSTEM LOSSES GW =           0.0000
        SYSTEM LOSSES SW =           0.0000          SYSTEM LOSSES SW =           0.0000

                TOTAL IN =  1918755072.0000                  TOTAL IN =           0.5773

          OUT:                                     OUT:
          ----                                     ----
               AG WELLS  =           0.0000                 AG WELLS  =           0.0000
      DIVERSION SEGMENTS =           0.0000        DIVERSION SEGMENTS =           0.0000
           GW IRRIGATION =   737085632.0000             GW IRRIGATION =       1.9264E-03
           SW IRRIGATION =  1181689984.0000             SW IRRIGATION =           0.5754
        SYSTEM LOSSES GW =           0.0000          SYSTEM LOSSES GW =           0.0000
        SYSTEM LOSSES SW =           0.0000          SYSTEM LOSSES SW =           0.0000

               TOTAL OUT =  1918775552.0000                 TOTAL OUT =           0.5773

                IN - OUT =      -20480.0000                  IN - OUT =      -1.1504E-05

     PERCENT DISCREPANCY =          -0.00         PERCENT DISCREPANCY =          -0.00



1
  VOLUMETRIC BUDGET FOR ENTIRE MODEL AT END OF TIME STEP   30, STRESS PERIOD  47
  ------------------------------------------------------------------------------

     CUMULATIVE VOLUMES      L**3       RATES FOR THIS TIME STEP      L**3/T
     ------------------                 ------------------------

           IN:                                      IN:
           ---                                      ---
             STORAGE     =  1169334272.0000               STORAGE     =           8.6952
       CONSTANT HEAD     =           0.0000         CONSTANT HEAD     =           0.0000
     HEAD DEP BOUNDS     =    34643144.0000       HEAD DEP BOUNDS     =           0.2871
      STREAM LEAKAGE     =  1459200768.0000        STREAM LEAKAGE     =          11.5341
        UZF RECHARGE     =   143405296.0000          UZF RECHARGE     =          35.1392
               GW ET     =           0.0000                 GW ET     =           0.0000
     SURFACE LEAKAGE     =           0.0000       SURFACE LEAKAGE     =           0.0000
           AG WELLS      =           0.0000             AG WELLS      =           0.0000

                TOTAL IN =  2806583552.0000                  TOTAL IN =          55.6556

          OUT:                                     OUT:
          ----                                     ----
             STORAGE     =   743727296.0000               STORAGE     =          44.9634
       CONSTANT HEAD     =           0.0000         CONSTANT HEAD     =           0.0000
     HEAD DEP BOUNDS     =    35186768.0000       HEAD DEP BOUNDS     =           0.2885
      STREAM LEAKAGE     =  1287720832.0000        STREAM LEAKAGE     =          10.3998
        UZF RECHARGE     =           0.0000          UZF RECHARGE     =           0.0000
               GW ET     =     2857194.5000                 GW ET     =           0.0000
     SURFACE LEAKAGE     =           0.0000       SURFACE LEAKAGE     =           0.0000
           AG WELLS      =   737085632.0000             AG WELLS      =       1.9264E-03

               TOTAL OUT =  2806577664.0000                 TOTAL OUT =          55.6536

                IN - OUT =        5888.0000                  IN - OUT =       1.9379E-03

     PERCENT DISCREPANCY =           0.00         PERCENT DISCREPANCY =           0.00






         TIME SUMMARY AT END OF TIME STEP   30 IN STRESS PERIOD   47
                    SECONDS     MINUTES      HOURS       DAYS        YEARS
                    -----------------------------------------------------------
   TIME STEP LENGTH  87667.      1461.1      24.352      1.0147     2.77799E-03
 STRESS PERIOD TIME 2.63000E+06  43833.      730.56      30.440     8.33397E-02
         TOTAL TIME 1.21065E+08 2.01775E+06  33629.      1401.2      3.8363    
1
1
                            STRESS PERIOD NO.   48, LENGTH =   2630000.    
                            -----------------------------------------------

                              NUMBER OF TIME STEPS =    30

                               MULTIPLIER FOR DELT =     1.000

                            INITIAL TIME STEP SIZE =   87666.66    

 REUSING NON-PARAMETER GHB CELLS FROM LAST STRESS PERIOD

      2 GHB CELLS

 REUSING STREAM SEGMENT DATA FROM LAST STRESS PERIOD



            AREAL INFILTRATION RATE
 READING ON UNIT   19 WITH FORMAT: (10F4.0)            

            1           2           3           4           5           6           7           8           9          10
 ........................................................................................................................
   1   1.2000E-09   0.000       0.000       0.000       0.000       0.000       0.000       0.000       0.000       0.000    
   2   2.1000E-09  2.0000E-09  8.0000E-10  8.5000E-09   0.000       0.000       0.000       0.000       0.000       0.000    
   3   5.0000E-10  1.1000E-09  8.8000E-09  5.5000E-09   0.000       0.000       0.000       0.000       0.000       0.000    
   4   8.5000E-09  1.1000E-09  1.1000E-09  1.1000E-09  2.0000E-09   0.000       0.000       0.000       0.000       0.000    
   5   8.5000E-09  1.1000E-09  1.1000E-09  1.1000E-09  1.1000E-09   0.000       0.000       0.000       0.000       0.000    
   6   8.5000E-09  5.2000E-09  2.1000E-09  1.1000E-09  1.5000E-09   0.000       0.000       0.000       0.000       0.000    
   7   8.5000E-09  5.2000E-09  2.1000E-09  1.2000E-09  2.0000E-09   0.000       0.000       0.000       0.000       0.000    
   8   5.0000E-10  5.2000E-09  2.1000E-09  1.2000E-09  5.0000E-09   0.000       0.000       0.000       0.000       0.000    
   9   5.0000E-10  5.2000E-09  2.1000E-09  1.2000E-09  5.0000E-09   0.000       0.000       0.000       0.000       0.000    
  10   5.0000E-10  5.2000E-09  2.1000E-09  1.2000E-09  5.8000E-09   0.000       0.000       0.000       0.000       0.000    
  11   1.0000E-10  1.1000E-09  1.1000E-09  1.2000E-09  5.0000E-09   0.000       0.000       0.000       0.000       0.000    
  12   1.1000E-09  1.1000E-09  1.1000E-09  1.1000E-09  2.0000E-09   0.000       0.000       0.000       0.000       0.000    
  13   1.1000E-09  2.2000E-09  2.2000E-09  2.1000E-09  1.0000E-09   0.000       0.000       0.000       0.000       0.000    
  14   2.0000E-10  5.5000E-09  5.5000E-09  5.2000E-09  1.0000E-09   0.000       0.000       0.000       0.000       0.000    
  15    0.000      8.8000E-09  8.8000E-09   0.000       0.000       0.000       0.000       0.000       0.000       0.000    

                  ET RATE =  5.000000E-10

 USING ET EXTINCTION DEPTH FROM PREVIOUS STRESS PERIOD. CURRENT PERIOD IS:      48

 USING EXTINCTION WATER CONTENT FROM PREVIOUS STRESS PERIOD. CURRENT PERIOD IS:      48

 USING AIR ENTRY PRESSURE FROM PREVIOUS STRESS PERIOD. CURRENT PERIOD IS:      48

 USING ROOT PRESSURE HEAD FROM PREVIOUS STRESS PERIOD. CURRENT PERIOD IS:      48

 USING ROOT ACTIVITY FROM PREVIOUS STRESS PERIOD. CURRENT PERIOD IS:      48

 PROCESSING AG STRESS PERIOD DATA

 READING AG STRESS PERIOD DATA

 READING IRRIGATION SEGMENT

 READING IRRIGATION WELL

 READING SUPPLEMENTAL WELL

 END PROCESSING AG STRESS PERIOD DATA OPTIONS
 
 SOLVING FOR HEAD 
                                                   Max.-Head-Change                         Max.-Flux-Residual
  Residual-Control   Outer-Iter.   Inner-Iter.     Column Row Layer    Maximum-Head-Change  Column Row Layer    Maximum-Flux-Residual          L2-NORM 
          0                 1           2             4    7     1       0.1747791271E+00       4    7    1         0.9524412996E+01      0.1298483192E+02
          0                 2           2             4    7     1       0.7013084838E-01       4    7    1         0.3817336966E+01      0.4684001206E+01
          0                 3           2             4    7     1       0.2808198881E-01       4    7    1         0.1531976577E+01      0.1855903373E+01
          0                 4           2             4    7     1       0.1123991248E-01       4    7    1         0.6131575745E+00      0.7386327806E+00
          0                 5           2             4    7     1       0.4498400778E-02       4    7    1         0.2454176848E+00      0.2940565922E+00
          0                 6           2             4    7     1       0.1800290011E-02       4    7    1         0.9821854642E-01      0.1170738047E+00
          0                 7           2             4    7     1       0.7204797270E-03       4    7    1         0.3930765413E-01      0.4661682851E-01
          0                 8           2             4    7     1       0.2883349223E-03       4    7    1         0.1573097308E-01      0.1856426979E-01
          0                 9           1             4    7     1       0.1153902703E-03       4    7    1         0.6295503339E-02      0.7393761479E-02
          0                10           1             4    7     1       0.4617828130E-04       4    7    1         0.2519427066E-02      0.2945129713E-02

    ------------------------------------------------
       NWT REQUIRED           10 OUTER ITERATIONS 
       AND A TOTAL OF         18 INNER ITERATIONS.
    ------------------------------------------------

 NO OUTPUT CONTROL FOR STRESS PERIOD   48   TIME STEP    1
 
 SOLVING FOR HEAD 
                                                   Max.-Head-Change                         Max.-Flux-Residual
  Residual-Control   Outer-Iter.   Inner-Iter.     Column Row Layer    Maximum-Head-Change  Column Row Layer    Maximum-Flux-Residual          L2-NORM 
          0                 1           2             4    6     1       0.2460755020E+00       4    6    1         0.1319840624E+02      0.1736027091E+02
          0                 2           2             4    6     1       0.1005177800E+00       4    6    1         0.5395503151E+01      0.6936741097E+01
          0                 3           2             4    6     1       0.4092168121E-01       4    6    1         0.2203577691E+01      0.2697208839E+01
          0                 4           2             4    6     1       0.1659246325E-01       4    6    1         0.8963972041E+00      0.1079870344E+01
          0                 5           2             4    6     1       0.6721527644E-02       4    6    1         0.3631700752E+00      0.4392286595E+00
          0                 6           2             4    6     1       0.2723052033E-02       4    6    1         0.1471141354E+00      0.1786560410E+00
          0                 7           2             4    6     1       0.1103333538E-02       4    6    1         0.5960094987E-01      0.7267242819E-01
          0                 8           2             4    6     1       0.4471174306E-03       4    6    1         0.2414998947E-01      0.2956309290E-01
          0                 9           2             4    6     1       0.1812169640E-03       4    6    1         0.9786881434E-02      0.1202698279E-01
          0                10           1             4    6     1       0.7345763969E-04       4    6    1         0.3966741355E-02      0.4893149656E-02

    ------------------------------------------------
       NWT REQUIRED           10 OUTER ITERATIONS 
       AND A TOTAL OF         19 INNER ITERATIONS.
    ------------------------------------------------

 NO OUTPUT CONTROL FOR STRESS PERIOD   48   TIME STEP    2
 
 SOLVING FOR HEAD 
                                                   Max.-Head-Change                         Max.-Flux-Residual
  Residual-Control   Outer-Iter.   Inner-Iter.     Column Row Layer    Maximum-Head-Change  Column Row Layer    Maximum-Flux-Residual          L2-NORM 
          0                 1           2             4    6     1       0.2471549972E+00       4    6    1         0.1346213037E+02      0.1553080329E+02
          0                 2           2             4    6     1       0.9899553261E-01       4    6    1         0.5395879895E+01      0.5429578884E+01
          0                 3           2             4    6     1       0.3960103595E-01       4    6    1         0.2161765672E+01      0.2162175119E+01
          0                 4           2             4    6     1       0.1583937472E-01       4    6    1         0.8645017234E+00      0.8645210606E+00
          0                 5           2             4    6     1       0.6335262037E-02       4    6    1         0.3457884088E+00      0.3457937313E+00
          0                 6           2             4    6     1       0.2533907484E-02       4    6    1         0.1383037263E+00      0.1383058922E+00
          0                 7           2             4    6     1       0.1013484024E-02       4    6    1         0.5531725135E-01      0.5531811254E-01
          0                 8           2             4    6     1       0.4053620278E-03       4    6    1         0.2212517347E-01      0.2212551822E-01
          0                 9           2             4    6     1       0.1621321803E-03       4    6    1         0.8849380491E-02      0.8849518401E-02
          0                10           1             4    6     1       0.6484782013E-04       4    6    1         0.3539476503E-02      0.3539531730E-02

    ------------------------------------------------
       NWT REQUIRED           10 OUTER ITERATIONS 
       AND A TOTAL OF         19 INNER ITERATIONS.
    ------------------------------------------------

 NO OUTPUT CONTROL FOR STRESS PERIOD   48   TIME STEP    3
 
 SOLVING FOR HEAD 
                                                   Max.-Head-Change                         Max.-Flux-Residual
  Residual-Control   Outer-Iter.   Inner-Iter.     Column Row Layer    Maximum-Head-Change  Column Row Layer    Maximum-Flux-Residual          L2-NORM 
          0                 1           2             4    6     1       0.2243671418E+00       4    6    1         0.1230899814E+02      0.1345728601E+02
          0                 2           2             4    6     1       0.8973109593E-01       4    6    1         0.4892096387E+01      0.4922218301E+01
          0                 3           2             4    6     1       0.3588581159E-01       4    6    1         0.1959263406E+01      0.1959603069E+01
          0                 4           2             4    6     1       0.1435162148E-01       4    6    1         0.7833470383E+00      0.7833543573E+00
          0                 5           2             4    6     1       0.5739571028E-02       4    6    1         0.3132968514E+00      0.3132976427E+00
          0                 6           2             4    6     1       0.2295398036E-02       4    6    1         0.1252941145E+00      0.1252944917E+00
          0                 7           2             4    6     1       0.9179871876E-03       4    6    1         0.5010835499E-01      0.5010850028E-01
          0                 8           2             4    6     1       0.3671260917E-03       4    6    1         0.2003958342E-01      0.2003964196E-01
          0                 9           2             4    6     1       0.1468229306E-03       4    6    1         0.8014332812E-02      0.8014356427E-02
          0                10           1             4    6     1       0.5871817222E-04       4    6    1         0.3205132762E-02      0.3205142703E-02

    ------------------------------------------------
       NWT REQUIRED           10 OUTER ITERATIONS 
       AND A TOTAL OF         19 INNER ITERATIONS.
    ------------------------------------------------

 NO OUTPUT CONTROL FOR STRESS PERIOD   48   TIME STEP    4
 
 SOLVING FOR HEAD 
                                                   Max.-Head-Change                         Max.-Flux-Residual
  Residual-Control   Outer-Iter.   Inner-Iter.     Column Row Layer    Maximum-Head-Change  Column Row Layer    Maximum-Flux-Residual          L2-NORM 
          0                 1           2             4    6     1       0.2037928084E+00       4    6    1         0.1116670732E+02      0.1219678898E+02
          0                 2           2             4    6     1       0.8149831104E-01       4    6    1         0.4444741163E+01      0.4471730780E+01
          0                 3           2             4    6     1       0.3259186484E-01       4    6    1         0.1779384651E+01      0.1779695517E+01
          0                 4           2             4    6     1       0.1303378101E-01       4    6    1         0.7114438408E+00      0.7114497647E+00
          0                 5           2             4    6     1       0.5212329609E-02       4    6    1         0.2845257873E+00      0.2845265268E+00
          0                 6           2             4    6     1       0.2084459301E-02       4    6    1         0.1137836322E+00      0.1137839735E+00
          0                 7           2             4    6     1       0.8335948217E-03       4    6    1         0.4550322137E-01      0.4550335349E-01
          0                 8           2             4    6     1       0.3333623984E-03       4    6    1         0.1819716239E-01      0.1819721551E-01
          0                 9           2             4    6     1       0.1333147558E-03       4    6    1         0.7277216962E-02      0.7277238251E-02
          0                10           1             4    6     1       0.5331382381E-04       4    6    1         0.2910227525E-02      0.2910236125E-02

    ------------------------------------------------
       NWT REQUIRED           10 OUTER ITERATIONS 
       AND A TOTAL OF         19 INNER ITERATIONS.
    ------------------------------------------------

 NO OUTPUT CONTROL FOR STRESS PERIOD   48   TIME STEP    5
 
 SOLVING FOR HEAD 
                                                   Max.-Head-Change                         Max.-Flux-Residual
  Residual-Control   Outer-Iter.   Inner-Iter.     Column Row Layer    Maximum-Head-Change  Column Row Layer    Maximum-Flux-Residual          L2-NORM 
          0                 1           2             4    6     1       0.1853328540E+00       4    6    1         0.1014243493E+02      0.1109137610E+02
          0                 2           2             4    6     1       0.7411292824E-01       4    6    1         0.4043404508E+01      0.4068243557E+01
          0                 3           2             4    6     1       0.2963683090E-01       4    6    1         0.1618021412E+01      0.1618314540E+01
          0                 4           2             4    6     1       0.1185142772E-01       4    6    1         0.6469362900E+00      0.6469410435E+00
          0                 5           2             4    6     1       0.4739253429E-02       4    6    1         0.2587120469E+00      0.2587127412E+00
          0                 6           2             4    6     1       0.1895175092E-02       4    6    1         0.1034554512E+00      0.1034557607E+00
          0                 7           2             4    6     1       0.7578596851E-03       4    6    1         0.4137076552E-01      0.4137088595E-01
          0                 8           2             4    6     1       0.3030597728E-03       4    6    1         0.1654371359E-01      0.1654376196E-01
          0                 9           2             4    6     1       0.1211902808E-03       4    6    1         0.6615650416E-02      0.6615669734E-02
          0                10           1             4    6     1       0.4846266502E-04       4    6    1         0.2645526166E-02      0.2645533894E-02

    ------------------------------------------------
       NWT REQUIRED           10 OUTER ITERATIONS 
       AND A TOTAL OF         19 INNER ITERATIONS.
    ------------------------------------------------

 NO OUTPUT CONTROL FOR STRESS PERIOD   48   TIME STEP    6
 
 SOLVING FOR HEAD 
                                                   Max.-Head-Change                         Max.-Flux-Residual
  Residual-Control   Outer-Iter.   Inner-Iter.     Column Row Layer    Maximum-Head-Change  Column Row Layer    Maximum-Flux-Residual          L2-NORM 
          0                 1           2             4    6     1       0.1687624368E+00       4    6    1         0.9223459174E+01      0.1012365386E+02
          0                 2           2             4    6     1       0.6748251297E-01       4    6    1         0.3683081638E+01      0.3706647038E+01
          0                 3           2             4    6     1       0.2698399655E-01       4    6    1         0.1473165448E+01      0.1473450463E+01
          0                 4           2             4    6     1       0.1079002240E-01       4    6    1         0.5890270115E+00      0.5890307925E+00
          0                 5           2             4    6     1       0.4314582097E-02       4    6    1         0.2355392266E+00      0.2355398797E+00
          0                 6           2             4    6     1       0.1725262813E-02       4    6    1         0.9418412011E-01      0.9418440101E-01
          0                 7           2             4    6     1       0.6898772740E-03       4    6    1         0.3766126155E-01      0.3766137149E-01
          0                 8           2             4    6     1       0.2758598132E-03       4    6    1         0.1505953046E-01      0.1505957458E-01
          0                 9           2             4    6     1       0.1103075006E-03       4    6    1         0.6021824309E-02      0.6021841928E-02
          0                10           1             4    6     1       0.4410843559E-04       4    6    1         0.2407934689E-02      0.2407941733E-02

    ------------------------------------------------
       NWT REQUIRED           10 OUTER ITERATIONS 
       AND A TOTAL OF         19 INNER ITERATIONS.
    ------------------------------------------------

 NO OUTPUT CONTROL FOR STRESS PERIOD   48   TIME STEP    7
 
 SOLVING FOR HEAD 
                                                   Max.-Head-Change                         Max.-Flux-Residual
  Residual-Control   Outer-Iter.   Inner-Iter.     Column Row Layer    Maximum-Head-Change  Column Row Layer    Maximum-Flux-Residual          L2-NORM 
          0                 1           2             4    6     1       0.1538806892E+00       4    6    1         0.8398492091E+01      0.9278031144E+01
          0                 2           2             4    6     1       0.6189929607E-01       4    6    1         0.3374738630E+01      0.3396999150E+01
          0                 3           2             4    6     1       0.2479983574E-01       4    6    1         0.1351693961E+01      0.1351971333E+01
          0                 4           2             4    6     1       0.9936032035E-02       4    6    1         0.5415689220E+00      0.5415716068E+00
          0                 5           2             4    6     1       0.3980866177E-02       4    6    1         0.2169819760E+00      0.2169825857E+00
          0                 6           2             4    6     1       0.1594932622E-02       4    6    1         0.8693356133E-01      0.8693381031E-01
          0                 7           2             4    6     1       0.6390092884E-03       4    6    1         0.3482994308E-01      0.3483004154E-01
          0                 8           2             4    6     1       0.2560189000E-03       4    6    1         0.1395460775E-01      0.1395464728E-01
          0                 9           1             4    6     1       0.1025739066E-03       4    6    1         0.5590910557E-02      0.5590926425E-02
          0                10           1             4    6     1       0.4109620974E-04       4    6    1         0.2239996964E-02      0.2240003477E-02

    ------------------------------------------------
       NWT REQUIRED           10 OUTER ITERATIONS 
       AND A TOTAL OF         18 INNER ITERATIONS.
    ------------------------------------------------

 NO OUTPUT CONTROL FOR STRESS PERIOD   48   TIME STEP    8
 
 SOLVING FOR HEAD 
                                                   Max.-Head-Change                         Max.-Flux-Residual
  Residual-Control   Outer-Iter.   Inner-Iter.     Column Row Layer    Maximum-Head-Change  Column Row Layer    Maximum-Flux-Residual          L2-NORM 
          0                 1           2             4    6     1       0.1411812626E+00       4    6    1         0.7680237777E+01      0.8564364955E+01
          0                 2           2             4    6     1       0.5656017428E-01       4    6    1         0.3084696253E+01      0.3107888876E+01
          0                 3           2             4    6     1       0.2265927831E-01       4    6    1         0.1235027371E+01      0.1235320403E+01
          0                 4           2             4    6     1       0.9077838254E-02       4    6    1         0.4948213198E+00      0.4948235777E+00
          0                 5           2             4    6     1       0.3636798047E-02       4    6    1         0.1982381336E+00      0.1982387064E+00
          0                 6           2             4    6     1       0.1456988363E-02       4    6    1         0.7941884366E-01      0.7941907063E-01
          0                 7           2             4    6     1       0.5837045008E-03       4    6    1         0.3181712262E-01      0.3181721281E-01
          0                 8           2             4    6     1       0.2338460433E-03       4    6    1         0.1274670406E-01      0.1274674024E-01
          0                 9           1             4    6     1       0.9368434411E-04       4    6    1         0.5106636390E-02      0.5106650873E-02

    ------------------------------------------------
       NWT REQUIRED            9 OUTER ITERATIONS 
       AND A TOTAL OF         17 INNER ITERATIONS.
    ------------------------------------------------

 NO OUTPUT CONTROL FOR STRESS PERIOD   48   TIME STEP    9
 
 SOLVING FOR HEAD 
                                                   Max.-Head-Change                         Max.-Flux-Residual
  Residual-Control   Outer-Iter.   Inner-Iter.     Column Row Layer    Maximum-Head-Change  Column Row Layer    Maximum-Flux-Residual          L2-NORM 
          0                 1           2             4    5     1       0.4275061978E-01       4    5    1         0.2284730407E+01      0.4129363572E+01
          0                 2           2             4    5     1      -0.4094338935E-02       4    5    1        -0.2284750382E+00      0.3750404918E+00
          0                 3           2             4    5     1       0.2809146123E-03       4    5    1         0.1602040210E-01      0.2592861689E-01
          0                 4           1             4    5     1      -0.1110875910E-04       4    5    1        -0.6534316708E-03      0.1059693775E-02

    ------------------------------------------------
       NWT REQUIRED            4 OUTER ITERATIONS 
       AND A TOTAL OF          7 INNER ITERATIONS.
    ------------------------------------------------

 NO OUTPUT CONTROL FOR STRESS PERIOD   48   TIME STEP   10
 
 SOLVING FOR HEAD 
                                                   Max.-Head-Change                         Max.-Flux-Residual
  Residual-Control   Outer-Iter.   Inner-Iter.     Column Row Layer    Maximum-Head-Change  Column Row Layer    Maximum-Flux-Residual          L2-NORM 
          0                 1           2             4    6     1      -0.5653944919E-01       4    6    1        -0.3107643818E+01      0.4716379840E+01
          0                 2           2             4    6     1       0.5490023980E-02       4    6    1         0.3102336419E+00      0.4706077824E+00
          0                 3           2             4    6     1      -0.3738538908E-03       4    6    1        -0.2171660653E-01      0.3294277560E-01
          0                 4           1             4    6     1       0.1487597618E-04       4    6    1         0.8882093184E-03      0.1347401305E-02

    ------------------------------------------------
       NWT REQUIRED            4 OUTER ITERATIONS 
       AND A TOTAL OF          7 INNER ITERATIONS.
    ------------------------------------------------

 NO OUTPUT CONTROL FOR STRESS PERIOD   48   TIME STEP   11
 
 SOLVING FOR HEAD 
                                                   Max.-Head-Change                         Max.-Flux-Residual
  Residual-Control   Outer-Iter.   Inner-Iter.     Column Row Layer    Maximum-Head-Change  Column Row Layer    Maximum-Flux-Residual          L2-NORM 
          0                 1           2             4    6     1      -0.5347503953E-01       4    6    1        -0.2938291726E+01      0.4485220264E+01
          0                 2           2             4    6     1       0.5201333861E-02       4    6    1         0.2938063456E+00      0.4485035298E+00
          0                 3           2             4    6     1      -0.3541947729E-03       4    6    1        -0.2056666903E-01      0.3139543648E-01
          0                 4           1             4    6     1       0.1409372351E-04       4    6    1         0.8411769331E-03      0.1284074688E-02

    ------------------------------------------------
       NWT REQUIRED            4 OUTER ITERATIONS 
       AND A TOTAL OF          7 INNER ITERATIONS.
    ------------------------------------------------

 NO OUTPUT CONTROL FOR STRESS PERIOD   48   TIME STEP   12
 
 SOLVING FOR HEAD 
                                                   Max.-Head-Change                         Max.-Flux-Residual
  Residual-Control   Outer-Iter.   Inner-Iter.     Column Row Layer    Maximum-Head-Change  Column Row Layer    Maximum-Flux-Residual          L2-NORM 
          0                 1           2             4    6     1      -0.5058339187E-01       4    6    1        -0.2778576627E+01      0.4268961837E+01
          0                 2           2             4    6     1       0.4920091517E-02       4    6    1         0.2778373415E+00      0.4268799074E+00
          0                 3           2             4    6     1      -0.3350428591E-03       4    6    1        -0.1944881457E-01      0.2988175959E-01
          0                 4           1             4    6     1       0.1333165340E-04       4    6    1         0.7954567536E-03      0.1222165139E-02

    ------------------------------------------------
       NWT REQUIRED            4 OUTER ITERATIONS 
       AND A TOTAL OF          7 INNER ITERATIONS.
    ------------------------------------------------

 NO OUTPUT CONTROL FOR STRESS PERIOD   48   TIME STEP   13
 
 SOLVING FOR HEAD 
                                                   Max.-Head-Change                         Max.-Flux-Residual
  Residual-Control   Outer-Iter.   Inner-Iter.     Column Row Layer    Maximum-Head-Change  Column Row Layer    Maximum-Flux-Residual          L2-NORM 
          0                 1           2             4    6     1      -0.4786158027E-01       4    6    1        -0.2628303176E+01      0.4066173273E+01
          0                 2           2             4    6     1       0.4655365456E-02       4    6    1         0.2628122151E+00      0.4066029999E+00
          0                 3           2             4    6     1      -0.3170156830E-03       4    6    1        -0.1839703428E-01      0.2846235616E-01
          0                 4           1             4    6     1       0.1261433661E-04       4    6    1         0.7524389612E-03      0.1164112534E-02

    ------------------------------------------------
       NWT REQUIRED            4 OUTER ITERATIONS 
       AND A TOTAL OF          7 INNER ITERATIONS.
    ------------------------------------------------

 NO OUTPUT CONTROL FOR STRESS PERIOD   48   TIME STEP   14
 
 SOLVING FOR HEAD 
                                                   Max.-Head-Change                         Max.-Flux-Residual
  Residual-Control   Outer-Iter.   Inner-Iter.     Column Row Layer    Maximum-Head-Change  Column Row Layer    Maximum-Flux-Residual          L2-NORM 
          0                 1           2             4    6     1      -0.4529931321E-01       4    6    1        -0.2486895222E+01      0.3875930703E+01
          0                 2           2             4    6     1       0.4406155077E-02       4    6    1         0.2486733851E+00      0.3875804522E+00
          0                 3           2             4    6     1      -0.3000451027E-03       4    6    1        -0.1740729714E-01      0.2713075938E-01
          0                 4           1             4    6     1       0.1193906280E-04       4    6    1         0.7119587385E-03      0.1109644627E-02

    ------------------------------------------------
       NWT REQUIRED            4 OUTER ITERATIONS 
       AND A TOTAL OF          7 INNER ITERATIONS.
    ------------------------------------------------

 NO OUTPUT CONTROL FOR STRESS PERIOD   48   TIME STEP   15
 
 SOLVING FOR HEAD 
                                                   Max.-Head-Change                         Max.-Flux-Residual
  Residual-Control   Outer-Iter.   Inner-Iter.     Column Row Layer    Maximum-Head-Change  Column Row Layer    Maximum-Flux-Residual          L2-NORM 
          0                 1           2             4    6     1      -0.4288571280E-01       4    6    1        -0.2353745003E+01      0.3697317646E+01
          0                 2           2             4    6     1       0.4171402702E-02       4    6    1         0.2353601060E+00      0.3697206492E+00
          0                 3           2             4    6     1      -0.2840590906E-03       4    6    1        -0.1647535073E-01      0.2588056418E-01
          0                 4           1             4    6     1       0.1130296600E-04       4    6    1         0.6738421407E-03      0.1058523398E-02

    ------------------------------------------------
       NWT REQUIRED            4 OUTER ITERATIONS 
       AND A TOTAL OF          7 INNER ITERATIONS.
    ------------------------------------------------

 NO OUTPUT CONTROL FOR STRESS PERIOD   48   TIME STEP   16
 
 SOLVING FOR HEAD 
                                                   Max.-Head-Change                         Max.-Flux-Residual
  Residual-Control   Outer-Iter.   Inner-Iter.     Column Row Layer    Maximum-Head-Change  Column Row Layer    Maximum-Flux-Residual          L2-NORM 
          0                 1           2             4    6     1      -0.4061175107E-01       4    6    1        -0.2228347758E+01      0.3529542855E+01
          0                 2           2             4    6     1       0.3950230528E-02       4    6    1         0.2228219275E+00      0.3529444824E+00
          0                 3           2             4    6     1      -0.2689978677E-03       4    6    1        -0.1559766323E-01      0.2470621362E-01
          0                 4           1             4    6     1       0.1070366721E-04       4    6    1         0.6379447495E-03      0.1010493397E-02

    ------------------------------------------------
       NWT REQUIRED            4 OUTER ITERATIONS 
       AND A TOTAL OF          7 INNER ITERATIONS.
    ------------------------------------------------

 NO OUTPUT CONTROL FOR STRESS PERIOD   48   TIME STEP   17
 
 SOLVING FOR HEAD 
                                                   Max.-Head-Change                         Max.-Flux-Residual
  Residual-Control   Outer-Iter.   Inner-Iter.     Column Row Layer    Maximum-Head-Change  Column Row Layer    Maximum-Flux-Residual          L2-NORM 
          0                 1           2             4    6     1      -0.3846796440E-01       4    6    1        -0.2110176085E+01      0.3371824501E+01
          0                 2           2             4    6     1       0.3741717045E-02       4    6    1         0.2110061332E+00      0.3370657946E+00
          0                 3           2             4    6     1      -0.2547986786E-03       4    6    1        -0.1477054427E-01      0.2359469237E-01
          0                 4           1             4    6     1       0.1013866953E-04       4    6    1         0.6041155998E-03      0.9650258457E-03

    ------------------------------------------------
       NWT REQUIRED            4 OUTER ITERATIONS 
       AND A TOTAL OF          7 INNER ITERATIONS.
    ------------------------------------------------

 NO OUTPUT CONTROL FOR STRESS PERIOD   48   TIME STEP   18
 
 SOLVING FOR HEAD 
                                                   Max.-Head-Change                         Max.-Flux-Residual
  Residual-Control   Outer-Iter.   Inner-Iter.     Column Row Layer    Maximum-Head-Change  Column Row Layer    Maximum-Flux-Residual          L2-NORM 
          0                 1           2             4    6     1      -0.3644639089E-01       4    6    1        -0.1998783801E+01      0.3223532084E+01
          0                 2           2             4    6     1       0.3545091959E-02       4    6    1         0.1998681246E+00      0.3223458012E+00
          0                 3           2             4    6     1      -0.2414090670E-03       4    6    1        -0.1399087178E-01      0.2256428304E-01
          0                 4           1             4    6     1       0.9605885244E-05       4    6    1         0.5722270025E-03      0.9228778421E-03

    ------------------------------------------------
       NWT REQUIRED            4 OUTER ITERATIONS 
       AND A TOTAL OF          7 INNER ITERATIONS.
    ------------------------------------------------

 NO OUTPUT CONTROL FOR STRESS PERIOD   48   TIME STEP   19
 
 SOLVING FOR HEAD 
                                                   Max.-Head-Change                         Max.-Flux-Residual
  Residual-Control   Outer-Iter.   Inner-Iter.     Column Row Layer    Maximum-Head-Change  Column Row Layer    Maximum-Flux-Residual          L2-NORM 
          0                 1           2             4    6     1      -0.3453962581E-01       4    6    1        -0.1893757853E+01      0.3084449561E+01
          0                 2           2             4    6     1       0.3359631353E-02       4    6    1         0.1893666141E+00      0.3084384230E+00
          0                 3           2             4    6     1      -0.2287797346E-03       4    6    1        -0.1325575548E-01      0.2159075474E-01
          0                 4           1             4    6     1       0.9103353268E-05       4    6    1         0.5421607575E-03      0.8830617528E-03

    ------------------------------------------------
       NWT REQUIRED            4 OUTER ITERATIONS 
       AND A TOTAL OF          7 INNER ITERATIONS.
    ------------------------------------------------

 NO OUTPUT CONTROL FOR STRESS PERIOD   48   TIME STEP   20
 
 SOLVING FOR HEAD 
                                                   Max.-Head-Change                         Max.-Flux-Residual
  Residual-Control   Outer-Iter.   Inner-Iter.     Column Row Layer    Maximum-Head-Change  Column Row Layer    Maximum-Flux-Residual          L2-NORM 
          0                 1           2             4    6     1      -0.3273998203E-01       4    6    1        -0.1794670050E+01      0.2953451071E+01
          0                 2           2             4    6     1       0.3184589004E-02       4    6    1         0.1794587988E+00      0.2953393451E+00
          0                 3           2             4    6     1      -0.2168598637E-03       4    6    1        -0.1256219899E-01      0.2067381332E-01
          0                 4           1             4    6     1       0.8629051271E-05       4    6    1         0.5137942985E-03      0.8455602391E-03

    ------------------------------------------------
       NWT REQUIRED            4 OUTER ITERATIONS 
       AND A TOTAL OF          7 INNER ITERATIONS.
    ------------------------------------------------

 NO OUTPUT CONTROL FOR STRESS PERIOD   48   TIME STEP   21
 
 SOLVING FOR HEAD 
                                                   Max.-Head-Change                         Max.-Flux-Residual
  Residual-Control   Outer-Iter.   Inner-Iter.     Column Row Layer    Maximum-Head-Change  Column Row Layer    Maximum-Flux-Residual          L2-NORM 
          0                 1           2             4    6     1      -0.3104110812E-01       4    6    1        -0.1701166178E+01      0.2830021706E+01
          0                 2           2             4    6     1       0.3019347291E-02       4    6    1         0.1701092707E+00      0.2829970791E+00
          0                 3           2             4    6     1      -0.2056073944E-03       4    6    1        -0.1190772359E-01      0.1980984706E-01
          0                 4           1             4    6     1       0.8181306218E-05       4    6    1         0.4870262783E-03      0.8102260017E-03

    ------------------------------------------------
       NWT REQUIRED            4 OUTER ITERATIONS 
       AND A TOTAL OF          7 INNER ITERATIONS.
    ------------------------------------------------

 NO OUTPUT CONTROL FOR STRESS PERIOD   48   TIME STEP   22
 
 SOLVING FOR HEAD 
                                                   Max.-Head-Change                         Max.-Flux-Residual
  Residual-Control   Outer-Iter.   Inner-Iter.     Column Row Layer    Maximum-Head-Change  Column Row Layer    Maximum-Flux-Residual          L2-NORM 
          0                 1           2             4    6     1      -0.2943656634E-01       4    6    1        -0.1612887276E+01      0.2713637273E+01
          0                 2           2             4    6     1       0.2863280171E-02       4    6    1         0.1612821459E+00      0.2713592358E+00
          0                 3           2             4    6     1      -0.1949796943E-03       4    6    1        -0.1128981737E-01      0.1899519343E-01
          0                 4           1             4    6     1       0.7758420437E-05       4    6    1         0.4617538862E-03      0.7769031145E-03

    ------------------------------------------------
       NWT REQUIRED            4 OUTER ITERATIONS 
       AND A TOTAL OF          7 INNER ITERATIONS.
    ------------------------------------------------

 NO OUTPUT CONTROL FOR STRESS PERIOD   48   TIME STEP   23
 
 SOLVING FOR HEAD 
                                                   Max.-Head-Change                         Max.-Flux-Residual
  Residual-Control   Outer-Iter.   Inner-Iter.     Column Row Layer    Maximum-Head-Change  Column Row Layer    Maximum-Flux-Residual          L2-NORM 
          0                 1           2             4    6     1      -0.2792062022E-01       4    6    1        -0.1529514351E+01      0.2603848871E+01
          0                 2           2             4    6     1       0.2715873612E-02       4    6    1         0.1529487085E+00      0.2603840573E+00
          0                 3           2             4    6     1      -0.1849411333E-03       4    6    1        -0.1070642807E-01      0.1822688287E-01
          0                 4           1             4    6     1       0.7358980162E-05       4    6    1         0.4378934541E-03      0.7454805149E-03

    ------------------------------------------------
       NWT REQUIRED            4 OUTER ITERATIONS 
       AND A TOTAL OF          7 INNER ITERATIONS.
    ------------------------------------------------

 NO OUTPUT CONTROL FOR STRESS PERIOD   48   TIME STEP   24
 
 SOLVING FOR HEAD 
                                                   Max.-Head-Change                         Max.-Flux-Residual
  Residual-Control   Outer-Iter.   Inner-Iter.     Column Row Layer    Maximum-Head-Change  Column Row Layer    Maximum-Flux-Residual          L2-NORM 
          0                 1           2             4    6     1      -0.2648778957E-01       4    6    1        -0.1450747586E+01      0.2500224431E+01
          0                 2           2             4    6     1       0.2576520595E-02       4    6    1         0.1450734535E+00      0.2500228297E+00
          0                 3           2             4    6     1      -0.1754516870E-03       4    6    1        -0.1015515847E-01      0.1750159454E-01
          0                 4           1             4    6     1       0.6981386731E-05       4    6    1         0.4153465138E-03      0.7158154642E-03

    ------------------------------------------------
       NWT REQUIRED            4 OUTER ITERATIONS 
       AND A TOTAL OF          7 INNER ITERATIONS.
    ------------------------------------------------

 NO OUTPUT CONTROL FOR STRESS PERIOD   48   TIME STEP   25
 
 SOLVING FOR HEAD 
                                                   Max.-Head-Change                         Max.-Flux-Residual
  Residual-Control   Outer-Iter.   Inner-Iter.     Column Row Layer    Maximum-Head-Change  Column Row Layer    Maximum-Flux-Residual          L2-NORM 
          0                 1           2             4    6     1      -0.2513314930E-01       4    6    1        -0.1376306847E+01      0.2402351620E+01
          0                 2           2             4    6     1       0.2444753076E-02       4    6    1         0.1376295200E+00      0.2402355036E+00
          0                 3           2             4    6     1      -0.1664787875E-03       4    6    1        -0.9634081581E-02      0.1681649170E-01
          0                 4           1             4    6     1       0.6624346569E-05       4    6    1         0.3940344327E-03      0.6878356466E-03

    ------------------------------------------------
       NWT REQUIRED            4 OUTER ITERATIONS 
       AND A TOTAL OF          7 INNER ITERATIONS.
    ------------------------------------------------

 NO OUTPUT CONTROL FOR STRESS PERIOD   48   TIME STEP   26
 
 SOLVING FOR HEAD 
                                                   Max.-Head-Change                         Max.-Flux-Residual
  Residual-Control   Outer-Iter.   Inner-Iter.     Column Row Layer    Maximum-Head-Change  Column Row Layer    Maximum-Flux-Residual          L2-NORM 
          0                 1           2             4    6     1      -0.2385156839E-01       4    6    1        -0.1305906524E+01      0.2309854962E+01
          0                 2           2             4    6     1       0.2319921879E-02       4    6    1         0.1305896125E+00      0.2306540259E+00
          0                 3           2             4    6     1      -0.1579782276E-03       4    6    1        -0.9141286722E-02      0.1614577113E-01
          0                 4           1             4    6     1       0.6286101910E-05       4    6    1         0.3738790992E-03      0.6603615606E-03

    ------------------------------------------------
       NWT REQUIRED            4 OUTER ITERATIONS 
       AND A TOTAL OF          7 INNER ITERATIONS.
    ------------------------------------------------

 NO OUTPUT CONTROL FOR STRESS PERIOD   48   TIME STEP   27
 
 SOLVING FOR HEAD 
                                                   Max.-Head-Change                         Max.-Flux-Residual
  Residual-Control   Outer-Iter.   Inner-Iter.     Column Row Layer    Maximum-Head-Change  Column Row Layer    Maximum-Flux-Residual          L2-NORM 
          0                 1           2             4    6     1      -0.2263948235E-01       4    6    1        -0.1239318192E+01      0.2222662645E+01
          0                 2           2             4    6     1       0.2202190840E-02       4    6    1         0.1239308920E+00      0.2222667387E+00
          0                 3           2             4    6     1      -0.1499611634E-03       4    6    1        -0.8675174952E-02      0.1555867102E-01
          0                 4           1             4    6     1       0.5967095302E-05       4    6    1         0.3548150944E-03      0.6363610967E-03

    ------------------------------------------------
       NWT REQUIRED            4 OUTER ITERATIONS 
       AND A TOTAL OF          7 INNER ITERATIONS.
    ------------------------------------------------

 NO OUTPUT CONTROL FOR STRESS PERIOD   48   TIME STEP   28
 
 SOLVING FOR HEAD 
                                                   Max.-Head-Change                         Max.-Flux-Residual
  Residual-Control   Outer-Iter.   Inner-Iter.     Column Row Layer    Maximum-Head-Change  Column Row Layer    Maximum-Flux-Residual          L2-NORM 
          0                 1           2             4    6     1      -0.2149260279E-01       4    6    1        -0.1176344621E+01      0.2140475585E+01
          0                 2           2             4    6     1       0.2090632172E-02       4    6    1         0.1176336345E+00      0.2140479775E+00
          0                 3           2             4    6     1      -0.1423644178E-03       4    6    1        -0.8234365805E-02      0.1498335284E-01
          0                 4           1             4    6     1       0.5664813972E-05       4    6    1         0.3367859895E-03      0.6128246433E-03

    ------------------------------------------------
       NWT REQUIRED            4 OUTER ITERATIONS 
       AND A TOTAL OF          7 INNER ITERATIONS.
    ------------------------------------------------

 NO OUTPUT CONTROL FOR STRESS PERIOD   48   TIME STEP   29
 
 SOLVING FOR HEAD 
                                                   Max.-Head-Change                         Max.-Flux-Residual
  Residual-Control   Outer-Iter.   Inner-Iter.     Column Row Layer    Maximum-Head-Change  Column Row Layer    Maximum-Flux-Residual          L2-NORM 
          0                 1           2             4    6     1      -0.2040678423E-01       4    6    1        -0.1116746259E+01      0.2062665560E+01
          0                 2           2             4    6     1       0.1985012916E-02       4    6    1         0.1116738868E+00      0.2062669227E+00
          0                 3           2             4    6     1      -0.1351721256E-03       4    6    1        -0.7817182447E-02      0.1443867920E-01
          0                 4           1             4    6     1       0.5378626560E-05       4    6    1         0.3197231854E-03      0.5905454253E-03

    ------------------------------------------------
       NWT REQUIRED            4 OUTER ITERATIONS 
       AND A TOTAL OF          7 INNER ITERATIONS.
    ------------------------------------------------

 NO OUTPUT CONTROL FOR STRESS PERIOD   48   TIME STEP   30



 STREAM LISTING     PERIOD     48   STEP       30

 LAYER ROW COL. STREAM  RCH.  FLOW INTO     FLOW TO   FLOW OUT OF   OVRLND.     DIRECT     STREAM       STREAM     STREAM     STREAM   STREAMBED  STREAMBED
                SEG.NO.  NO.  STRM. RCH.    AQUIFER    STRM. RCH.    RUNOFF     PRECIP       ET          HEAD       DEPTH      WIDTH   CONDCTNC.   GRADIENT

   1    1    1     1     1    1.5750E+01  1.9239E-01   1.5557E+01  0.000E+00  0.000E+00  0.000E+00  1.09407E+03  1.025E+00  1.062E+01  4.780E-02  1.342E+00
   1    2    2     1     2    1.5557E+01  2.9659E-01   1.5261E+01  0.000E+00  0.000E+00  0.000E+00  1.08908E+03  1.020E+00  1.054E+01  7.378E-02  1.340E+00
   1    3    3     1     3    1.5261E+01  2.5163E-01   1.5009E+01  0.000E+00  0.000E+00  0.000E+00  1.08343E+03  1.015E+00  1.045E+01  6.268E-02  1.338E+00
   1    3    4     1     4    1.5009E+01  2.3063E-01   1.4778E+01  0.000E+00  0.000E+00  0.000E+00  1.07842E+03  1.010E+00  1.036E+01  5.751E-02  1.337E+00
   1    4    5     2     1    1.2778E+01  2.9653E-01   1.2482E+01  0.000E+00  0.000E+00  0.000E+00  1.07274E+03  8.017E-01  1.200E+01  7.800E-02  1.267E+00
   1    5    6     2     2    1.2482E+01  2.2750E-01   1.2254E+01  0.000E+00  0.000E+00  0.000E+00  1.06730E+03  7.916E-01  1.200E+01  6.000E-02  1.264E+00
   1    6    6     2     3    1.2254E+01  2.2697E-01   1.2027E+01  0.000E+00  0.000E+00  0.000E+00  1.06258E+03  7.829E-01  1.200E+01  6.000E-02  1.261E+00
   1    7    6     2     4    1.2027E+01  2.2644E-01   1.1801E+01  0.000E+00  0.000E+00  0.000E+00  1.05785E+03  7.741E-01  1.200E+01  6.000E-02  1.258E+00
   1    8    6     2     5    1.1801E+01  2.2591E-01   1.1575E+01  0.000E+00  0.000E+00  0.000E+00  1.05312E+03  7.652E-01  1.200E+01  6.000E-02  1.255E+00
   1    3    5     3     1    2.0000E+00  2.8252E-01   1.7175E+00  0.000E+00  0.000E+00  0.000E+00  1.07555E+03  1.909E+00  9.636E+00  7.227E-02  1.955E+00
   1    3    6     3     2    1.7175E+00  2.4905E-01   1.4684E+00  0.000E+00  0.000E+00  0.000E+00  1.07264E+03  1.727E+00  8.909E+00  6.682E-02  1.864E+00
   1    3    7     3     3    1.4684E+00  1.9718E-01   1.2712E+00  0.000E+00  0.000E+00  0.000E+00  1.06987E+03  1.555E+00  8.218E+00  5.547E-02  1.777E+00
   1    4    8     3     4    1.2712E+00  2.2567E-01   1.0456E+00  0.000E+00  0.000E+00  0.000E+00  1.06682E+03  1.364E+00  7.455E+00  6.709E-02  1.682E+00
   1    5    8     3     5    1.0456E+00  1.5790E-01   8.8768E-01  0.000E+00  0.000E+00  0.000E+00  1.06362E+03  1.164E+00  6.655E+00  4.991E-02  1.582E+00
   1    6    8     3     6    8.8768E-01  5.5980E-02   8.3170E-01  0.000E+00  0.000E+00  0.000E+00  1.06158E+03  1.036E+00  6.145E+00  1.844E-02  1.518E+00
   1    5   10     4     1    1.0000E+01  9.0919E-02   9.9091E+00  0.000E+00  0.000E+00  0.000E+00  1.07836E+03  6.368E-01  1.000E+01  2.500E-02  1.212E+00
   1    5    9     4     2    9.9091E+00  1.8158E-01   9.7275E+00  0.000E+00  0.000E+00  0.000E+00  1.07154E+03  6.315E-01  1.000E+01  5.000E-02  1.211E+00
   1    6    8     4     3    9.7275E+00  1.2689E-01   9.6006E+00  0.000E+00  0.000E+00  0.000E+00  1.06381E+03  6.256E-01  1.000E+01  3.500E-02  1.209E+00
   1    6    8     5     1    1.0432E+01  2.2686E-01   1.0205E+01  0.000E+00  0.000E+00  0.000E+00  1.05868E+03  6.790E-01  1.542E+01  6.166E-02  1.226E+00
   1    7    7     5     2    1.0205E+01  2.7894E-01   9.9265E+00  0.000E+00  0.000E+00  0.000E+00  1.05417E+03  6.732E-01  1.519E+01  7.594E-02  1.224E+00
   1    8    7     5     3    9.9265E+00  1.9221E-01   9.7343E+00  0.000E+00  0.000E+00  0.000E+00  1.04992E+03  6.676E-01  1.497E+01  5.241E-02  1.223E+00
   1    8    6     5     4    9.7343E+00  1.3577E-01   9.5985E+00  0.000E+00  0.000E+00  0.000E+00  1.04691E+03  6.637E-01  1.482E+01  3.706E-02  1.221E+00
   1    9    6     6     1    2.1173E+01  2.4608E-01   2.0927E+01  0.000E+00  0.000E+00  0.000E+00  1.04383E+03  1.101E+00  1.200E+01  6.000E-02  1.367E+00
   1   10    7     6     2    2.0927E+01  2.4562E-01   2.0682E+01  0.000E+00  0.000E+00  0.000E+00  1.03928E+03  1.094E+00  1.200E+01  6.000E-02  1.365E+00
   1   11    7     6     3    2.0682E+01  2.4515E-01   2.0437E+01  0.000E+00  0.000E+00  0.000E+00  1.03472E+03  1.086E+00  1.200E+01  6.000E-02  1.362E+00
   1   12    7     6     4    2.0437E+01  2.4468E-01   2.0192E+01  0.000E+00  0.000E+00  0.000E+00  1.03017E+03  1.078E+00  1.200E+01  6.000E-02  1.359E+00
   1   13    7     6     5    2.0192E+01  1.5318E-03   2.0190E+01  0.000E+00  0.000E+00  0.000E+00  1.02698E+03  1.074E+00  1.200E+01  2.400E-02  2.127E-02
   1   14    9     7     1    1.5000E+02  1.3555E+00   1.4864E+02  0.000E+00  0.000E+00  0.000E+00  1.03987E+03  2.288E+00  5.529E+01  5.593E-01  8.078E-01
   1   13    8     7     2    1.4864E+02  1.8886E+00   1.4676E+02  0.000E+00  0.000E+00  0.000E+00  1.03478E+03  2.279E+00  5.526E+01  6.148E-01  1.024E+00
   1   13    7     7     3    1.4676E+02  1.5467E+00   1.4521E+02  0.000E+00  0.000E+00  0.000E+00  1.02969E+03  2.270E+00  5.521E+01  5.584E-01  9.233E-01
   1   13    6     8     1    1.6540E+02  9.6981E-01   1.6443E+02  0.000E+00  0.000E+00  0.000E+00  1.02479E+03  2.919E+00  4.232E+01  4.313E-01  7.496E-01
   1   13    5     8     2    1.6443E+02  2.2076E-01   1.6421E+02  0.000E+00  0.000E+00  0.000E+00  1.01854E+03  2.915E+00  4.226E+01  4.307E-01  1.709E-01
   1   13    4     8     3    1.6421E+02 -2.2825E+00   1.6649E+02  0.000E+00  0.000E+00  0.000E+00  1.01230E+03  2.922E+00  4.236E+01  4.317E+00 -1.762E-01
   1   13    3     8     4    1.6649E+02 -3.5660E+00   1.7006E+02  0.000E+00  0.000E+00  0.000E+00  1.00607E+03  2.941E+00  4.264E+01  4.346E+00 -2.735E-01
   1   13    2     8     5    1.7006E+02 -2.5502E+00   1.7261E+02  0.000E+00  0.000E+00  0.000E+00  9.99836E+02  2.961E+00  4.293E+01  4.375E+00 -1.943E-01
   1   13    1     8     6    1.7261E+02 -1.9688E+00   1.7458E+02  0.000E+00  0.000E+00  0.000E+00  9.94850E+02  2.975E+00  4.314E+01  2.638E+00 -2.488E-01
   1    8    6     9     1    0.0000E+00  0.0000E+00   0.0000E+00  0.000E+00  0.000E+00  0.000E+00  1.07875E+03  0.000E+00  4.000E+00  0.000E+00  1.000E+00
   1    8    5     9     2    0.0000E+00  0.0000E+00   0.0000E+00  0.000E+00  0.000E+00  0.000E+00  1.07825E+03  0.000E+00  4.000E+00  0.000E+00  1.000E+00





UNSATURATED ZONE PACKAGE VOLUMETRIC BUDGET FOR  TIME STEP    30 STRESS PERIOD   48
  ------------------------------------------------------------------------------



     CUMULATIVE VOLUMES      L**3       RATES FOR THIS TIME STEP      L**3/T
     ------------------                 ------------------------

           IN:                                      IN:
           ---                                      ---
        INFILTRATION =  2463078526.3013          INFILTRATION =           4.4075

          OUT:                                     OUT:
          ----                                     ----
              UZF ET =  1986009270.2948                UZF ET =           0.7250
        UZF RECHARGE =   163580365.3238          UZF RECHARGE =       0.0000E+00

            IN - OUT =   313488890.6826              IN - OUT =           3.6825

          STORAGE:                                 STORAGE:
          --------                                 --------
      STORAGE CHANGE =   313490394.5294        STORAGE CHANGE =           3.6825

 PERCENT DISCREPANCY IS DIFFERENCE BETWEEN IN-OUT MINUS CHANGE IN STORAGE
 DIVIDED BY THE AVERAGE OF IN AND OUT TIMES 100

 PERCENT DISCREPANCY =          -0.00     PERCENT DISCREPANCY =           0.00






1
  VOLUMETRIC BUDGET FOR AGRICULTURAL FIELDS AT  END OF TIME STEP   30, STRESS PERIOD  48
  ------------------------------------------------------------------------------

     CUMULATIVE VOLUMES      L**3       RATES FOR THIS TIME STEP      L**3/T
     ------------------                 ------------------------

           IN:                                      IN:
           ---                                      ---
               AG WELLS  =   737085632.0000                 AG WELLS  =           0.0000
      DIVERSION SEGMENTS =  1181669376.0000        DIVERSION SEGMENTS =           0.0000
           GW IRRIGATION =           0.0000             GW IRRIGATION =           0.0000
           SW IRRIGATION =           0.0000             SW IRRIGATION =           0.0000
        SYSTEM LOSSES GW =           0.0000          SYSTEM LOSSES GW =           0.0000
        SYSTEM LOSSES SW =           0.0000          SYSTEM LOSSES SW =           0.0000

                TOTAL IN =  1918755072.0000                  TOTAL IN =           0.0000

          OUT:                                     OUT:
          ----                                     ----
               AG WELLS  =           0.0000                 AG WELLS  =           0.0000
      DIVERSION SEGMENTS =           0.0000        DIVERSION SEGMENTS =           0.0000
           GW IRRIGATION =   737085632.0000             GW IRRIGATION =           0.0000
           SW IRRIGATION =  1181689984.0000             SW IRRIGATION =           0.0000
        SYSTEM LOSSES GW =           0.0000          SYSTEM LOSSES GW =           0.0000
        SYSTEM LOSSES SW =           0.0000          SYSTEM LOSSES SW =           0.0000

               TOTAL OUT =  1918775552.0000                 TOTAL OUT =           0.0000

                IN - OUT =      -20480.0000                  IN - OUT =           0.0000

     PERCENT DISCREPANCY =          -0.00         PERCENT DISCREPANCY =           0.00



1
  VOLUMETRIC BUDGET FOR ENTIRE MODEL AT END OF TIME STEP   30, STRESS PERIOD  48
  ------------------------------------------------------------------------------

     CUMULATIVE VOLUMES      L**3       RATES FOR THIS TIME STEP      L**3/T
     ------------------                 ------------------------

           IN:                                      IN:
           ---                                      ---
             STORAGE     =  1188088320.0000               STORAGE     =           5.0067
       CONSTANT HEAD     =           0.0000         CONSTANT HEAD     =           0.0000
     HEAD DEP BOUNDS     =    35398152.0000       HEAD DEP BOUNDS     =           0.2871
      STREAM LEAKAGE     =  1489538816.0000        STREAM LEAKAGE     =          11.5404
        UZF RECHARGE     =   163580336.0000          UZF RECHARGE     =           0.0000
               GW ET     =           0.0000                 GW ET     =           0.0000
     SURFACE LEAKAGE     =           0.0000       SURFACE LEAKAGE     =           0.0000
           AG WELLS      =           0.0000             AG WELLS      =           0.0000

                TOTAL IN =  2876605696.0000                  TOTAL IN =          16.8342

          OUT:                                     OUT:
          ----                                     ----
             STORAGE     =   785707584.0000               STORAGE     =           6.1779
       CONSTANT HEAD     =           0.0000         CONSTANT HEAD     =           0.0000
     HEAD DEP BOUNDS     =    35945848.0000       HEAD DEP BOUNDS     =           0.2887
      STREAM LEAKAGE     =  1315002368.0000        STREAM LEAKAGE     =          10.3676
        UZF RECHARGE     =           0.0000          UZF RECHARGE     =           0.0000
               GW ET     =     2857194.5000                 GW ET     =           0.0000
     SURFACE LEAKAGE     =           0.0000       SURFACE LEAKAGE     =           0.0000
           AG WELLS      =   737085632.0000             AG WELLS      =           0.0000

               TOTAL OUT =  2876598784.0000                 TOTAL OUT =          16.8342

                IN - OUT =        6912.0000                  IN - OUT =       9.5367E-06

     PERCENT DISCREPANCY =           0.00         PERCENT DISCREPANCY =           0.00






         TIME SUMMARY AT END OF TIME STEP   30 IN STRESS PERIOD   48
                    SECONDS     MINUTES      HOURS       DAYS        YEARS
                    -----------------------------------------------------------
   TIME STEP LENGTH  87667.      1461.1      24.352      1.0147     2.77799E-03
 STRESS PERIOD TIME 2.63000E+06  43833.      730.56      30.440     8.33397E-02
         TOTAL TIME 1.23695E+08 2.06158E+06  34360.      1431.7      3.9197    
1
1
                            STRESS PERIOD NO.   49, LENGTH =   2630000.    
                            -----------------------------------------------

                              NUMBER OF TIME STEPS =    30

                               MULTIPLIER FOR DELT =     1.000

                            INITIAL TIME STEP SIZE =   87666.66    

 REUSING NON-PARAMETER GHB CELLS FROM LAST STRESS PERIOD

      2 GHB CELLS

 REUSING STREAM SEGMENT DATA FROM LAST STRESS PERIOD



            AREAL INFILTRATION RATE
 READING ON UNIT   19 WITH FORMAT: (10F4.0)            

            1           2           3           4           5           6           7           8           9          10
 ........................................................................................................................
   1   1.2000E-09   0.000       0.000       0.000       0.000       0.000       0.000       0.000       0.000       0.000    
   2   2.1000E-09  2.0000E-09  8.0000E-10  8.5000E-09   0.000       0.000       0.000       0.000       0.000       0.000    
   3   5.0000E-10  1.1000E-09  8.8000E-09  5.5000E-09   0.000       0.000       0.000       0.000       0.000       0.000    
   4   8.5000E-09  1.1000E-09  1.1000E-09  1.1000E-09  2.0000E-09   0.000       0.000       0.000       0.000       0.000    
   5   8.5000E-09  1.1000E-09  1.1000E-09  1.1000E-09  1.1000E-09   0.000       0.000       0.000       0.000       0.000    
   6   8.5000E-09  5.2000E-09  2.1000E-09  1.1000E-09  1.5000E-09   0.000       0.000       0.000       0.000       0.000    
   7   8.5000E-09  5.2000E-09  2.1000E-09  1.2000E-09  2.0000E-09   0.000       0.000       0.000       0.000       0.000    
   8   5.0000E-10  5.2000E-09  2.1000E-09  1.2000E-09  5.0000E-09   0.000       0.000       0.000       0.000       0.000    
   9   5.0000E-10  5.2000E-09  2.1000E-09  1.2000E-09  5.0000E-09   0.000       0.000       0.000       0.000       0.000    
  10   5.0000E-10  5.2000E-09  2.1000E-09  1.2000E-09  5.8000E-09   0.000       0.000       0.000       0.000       0.000    
  11   1.0000E-10  1.1000E-09  1.1000E-09  1.2000E-09  5.0000E-09   0.000       0.000       0.000       0.000       0.000    
  12   1.1000E-09  1.1000E-09  1.1000E-09  1.1000E-09  2.0000E-09   0.000       0.000       0.000       0.000       0.000    
  13   1.1000E-09  2.2000E-09  2.2000E-09  2.1000E-09  1.0000E-09   0.000       0.000       0.000       0.000       0.000    
  14   2.0000E-10  5.5000E-09  5.5000E-09  5.2000E-09  1.0000E-09   0.000       0.000       0.000       0.000       0.000    
  15    0.000      8.8000E-09  8.8000E-09   0.000       0.000       0.000       0.000       0.000       0.000       0.000    

                  ET RATE =  5.000000E-10

 USING ET EXTINCTION DEPTH FROM PREVIOUS STRESS PERIOD. CURRENT PERIOD IS:      49

 USING EXTINCTION WATER CONTENT FROM PREVIOUS STRESS PERIOD. CURRENT PERIOD IS:      49

 USING AIR ENTRY PRESSURE FROM PREVIOUS STRESS PERIOD. CURRENT PERIOD IS:      49

 USING ROOT PRESSURE HEAD FROM PREVIOUS STRESS PERIOD. CURRENT PERIOD IS:      49

 USING ROOT ACTIVITY FROM PREVIOUS STRESS PERIOD. CURRENT PERIOD IS:      49

 PROCESSING AG STRESS PERIOD DATA

 READING AG STRESS PERIOD DATA

 READING IRRIGATION SEGMENT

 READING IRRIGATION WELL

 READING SUPPLEMENTAL WELL

 END PROCESSING AG STRESS PERIOD DATA OPTIONS
 
 SOLVING FOR HEAD 
                                                   Max.-Head-Change                         Max.-Flux-Residual
  Residual-Control   Outer-Iter.   Inner-Iter.     Column Row Layer    Maximum-Head-Change  Column Row Layer    Maximum-Flux-Residual          L2-NORM 
          0                 1           2             4    6     1      -0.1937853848E-01       4    6    1        -0.1060328699E+01      0.1988969461E+01
          0                 2           2             4    6     1       0.1884993784E-02       4    6    1         0.1060322096E+00      0.1988972699E+00
          0                 3           2             4    6     1      -0.1283611825E-03       4    6    1        -0.7422264140E-02      0.1392280067E-01
          0                 4           1             4    6     1       0.5107612965E-05       4    6    1         0.3035710042E-03      0.5694444979E-03

    ------------------------------------------------
       NWT REQUIRED            4 OUTER ITERATIONS 
       AND A TOTAL OF          7 INNER ITERATIONS.
    ------------------------------------------------

 NO OUTPUT CONTROL FOR STRESS PERIOD   49   TIME STEP    1
 
 SOLVING FOR HEAD 
                                                   Max.-Head-Change                         Max.-Flux-Residual
  Residual-Control   Outer-Iter.   Inner-Iter.     Column Row Layer    Maximum-Head-Change  Column Row Layer    Maximum-Flux-Residual          L2-NORM 
          0                 1           2             4    6     1      -0.1840434613E-01       4    6    1        -0.1006896271E+01      0.1919110937E+01
          0                 2           2             4    6     1       0.1790232449E-02       4    6    1         0.1006890371E+00      0.1919113646E+00
          0                 3           2             4    6     1      -0.1219082765E-03       4    6    1        -0.7048241211E-02      0.1343377570E-01
          0                 4           1             4    6     1       0.4850845720E-05       4    6    1         0.2882734361E-03      0.5494418338E-03

    ------------------------------------------------
       NWT REQUIRED            4 OUTER ITERATIONS 
       AND A TOTAL OF          7 INNER ITERATIONS.
    ------------------------------------------------

 NO OUTPUT CONTROL FOR STRESS PERIOD   49   TIME STEP    2
 
 SOLVING FOR HEAD 
                                                   Max.-Head-Change                         Max.-Flux-Residual
  Residual-Control   Outer-Iter.   Inner-Iter.     Column Row Layer    Maximum-Head-Change  Column Row Layer    Maximum-Flux-Residual          L2-NORM 
          0                 1           2             4    6     1      -0.1748118403E-01       4    6    1        -0.9562813011E+00      0.1852886274E+01
          0                 2           2             4    6     1       0.1700434856E-02       4    6    1         0.9562760271E-01      0.1852888527E+00
          0                 3           2             4    6     1      -0.1157933849E-03       4    6    1        -0.6693940069E-02      0.1297020735E-01
          0                 4           1             4    6     1       0.4607528832E-05       4    6    1         0.2737825116E-03      0.5304838545E-03

    ------------------------------------------------
       NWT REQUIRED            4 OUTER ITERATIONS 
       AND A TOTAL OF          7 INNER ITERATIONS.
    ------------------------------------------------

 NO OUTPUT CONTROL FOR STRESS PERIOD   49   TIME STEP    3
 
 SOLVING FOR HEAD 
                                                   Max.-Head-Change                         Max.-Flux-Residual
  Residual-Control   Outer-Iter.   Inner-Iter.     Column Row Layer    Maximum-Head-Change  Column Row Layer    Maximum-Flux-Residual          L2-NORM 
          0                 1           2             4    6     1      -0.1660623508E-01       4    6    1        -0.9083270355E+00      0.1790190652E+01
          0                 2           2             4    6     1       0.1615326990E-02       4    6    1         0.9083223196E-01      0.1790184916E+00
          0                 3           2             4    6     1      -0.1099978470E-03       4    6    1        -0.6358263458E-02      0.1253120503E-01
          0                 4           1             4    6     1       0.4376919269E-05       4    6    1         0.2600533235E-03      0.5125271822E-03

    ------------------------------------------------
       NWT REQUIRED            4 OUTER ITERATIONS 
       AND A TOTAL OF          7 INNER ITERATIONS.
    ------------------------------------------------

 NO OUTPUT CONTROL FOR STRESS PERIOD   49   TIME STEP    4
 
 SOLVING FOR HEAD 
                                                   Max.-Head-Change                         Max.-Flux-Residual
  Residual-Control   Outer-Iter.   Inner-Iter.     Column Row Layer    Maximum-Head-Change  Column Row Layer    Maximum-Flux-Residual          L2-NORM 
          0                 1           2             4    6     1      -0.1577606448E-01       4    6    1        -0.8628429972E+00      0.1730827781E+01
          0                 2           2             4    6     1       0.1534574750E-02       4    6    1         0.8628387801E-01      0.1730810011E+00
          0                 3           2             4    6     1      -0.1044989113E-03       4    6    1        -0.6039878058E-02      0.1211549614E-01
          0                 4           1             4    6     1       0.4158111205E-05       4    6    1         0.2470313270E-03      0.4955280321E-03

    ------------------------------------------------
       NWT REQUIRED            4 OUTER ITERATIONS 
       AND A TOTAL OF          7 INNER ITERATIONS.
    ------------------------------------------------

 NO OUTPUT CONTROL FOR STRESS PERIOD   49   TIME STEP    5
 
 SOLVING FOR HEAD 
                                                   Max.-Head-Change                         Max.-Flux-Residual
  Residual-Control   Outer-Iter.   Inner-Iter.     Column Row Layer    Maximum-Head-Change  Column Row Layer    Maximum-Flux-Residual          L2-NORM 
          0                 1           2             4    6     1      -0.1498879967E-01       4    6    1        -0.8197251104E+00      0.1674233771E+01
          0                 2           2             4    6     1       0.1457995998E-02       4    6    1         0.8197213390E-01      0.1674217082E+00
          0                 3           1             4    6     1      -0.9928423703E-04       4    6    1        -0.5738055422E-02      0.1171935252E-01

    ------------------------------------------------
       NWT REQUIRED            3 OUTER ITERATIONS 
       AND A TOTAL OF          5 INNER ITERATIONS.
    ------------------------------------------------

 NO OUTPUT CONTROL FOR STRESS PERIOD   49   TIME STEP    6
 
 SOLVING FOR HEAD 
                                                   Max.-Head-Change                         Max.-Flux-Residual
  Residual-Control   Outer-Iter.   Inner-Iter.     Column Row Layer    Maximum-Head-Change  Column Row Layer    Maximum-Flux-Residual          L2-NORM 
          0                 1           2             4    6     1      -0.1424112313E-01       4    6    1        -0.7787899256E+00      0.1620450619E+01
          0                 2           2             4    6     1       0.1385268036E-02       4    6    1         0.7787865523E-01      0.1620434843E+00
          0                 3           1             4    6     1      -0.9433173001E-04       4    6    1        -0.5451511426E-02      0.1134286646E-01

    ------------------------------------------------
       NWT REQUIRED            3 OUTER ITERATIONS 
       AND A TOTAL OF          5 INNER ITERATIONS.
    ------------------------------------------------

 NO OUTPUT CONTROL FOR STRESS PERIOD   49   TIME STEP    7
 
 SOLVING FOR HEAD 
                                                   Max.-Head-Change                         Max.-Flux-Residual
  Residual-Control   Outer-Iter.   Inner-Iter.     Column Row Layer    Maximum-Head-Change  Column Row Layer    Maximum-Flux-Residual          L2-NORM 
          0                 1           2             3    7     1       0.1355065774E-01       4    6    1        -0.7399499514E+00      0.1569347628E+01
          0                 2           2             3    7     1      -0.1318109669E-02       4    6    1         0.7399469345E-01      0.1569332897E+00
          0                 3           1             3    7     1       0.8975841605E-04       4    6    1        -0.5179633638E-02      0.1098520652E-01

    ------------------------------------------------
       NWT REQUIRED            3 OUTER ITERATIONS 
       AND A TOTAL OF          5 INNER ITERATIONS.
    ------------------------------------------------

 NO OUTPUT CONTROL FOR STRESS PERIOD   49   TIME STEP    8
 
 SOLVING FOR HEAD 
                                                   Max.-Head-Change                         Max.-Flux-Residual
  Residual-Control   Outer-Iter.   Inner-Iter.     Column Row Layer    Maximum-Head-Change  Column Row Layer    Maximum-Flux-Residual          L2-NORM 
          0                 1           2             3    7     1       0.1327714645E-01       4    6    1        -0.7030812800E+00      0.1520763257E+01
          0                 2           2             3    7     1      -0.1291503310E-02       4    6    1         0.7030785818E-01      0.1511345947E+00
          0                 3           1             3    7     1       0.8794656121E-04       4    6    1        -0.4921554742E-02      0.1058106477E-01

    ------------------------------------------------
       NWT REQUIRED            3 OUTER ITERATIONS 
       AND A TOTAL OF          5 INNER ITERATIONS.
    ------------------------------------------------

 NO OUTPUT CONTROL FOR STRESS PERIOD   49   TIME STEP    9
 
 SOLVING FOR HEAD 
                                                   Max.-Head-Change                         Max.-Flux-Residual
  Residual-Control   Outer-Iter.   Inner-Iter.     Column Row Layer    Maximum-Head-Change  Column Row Layer    Maximum-Flux-Residual          L2-NORM 
          0                 1           2             3    7     1       0.1300936186E-01       4    6    1        -0.6680675990E+00      0.1474607169E+01
          0                 2           2             3    7     1      -0.1265454211E-02       4    6    1         0.6680651858E-01      0.1466095761E+00
          0                 3           1             3    7     1       0.8617284190E-04       4    6    1        -0.4676460597E-02      0.1025374342E-01

    ------------------------------------------------
       NWT REQUIRED            3 OUTER ITERATIONS 
       AND A TOTAL OF          5 INNER ITERATIONS.
    ------------------------------------------------

 NO OUTPUT CONTROL FOR STRESS PERIOD   49   TIME STEP   10
 
 SOLVING FOR HEAD 
                                                   Max.-Head-Change                         Max.-Flux-Residual
  Residual-Control   Outer-Iter.   Inner-Iter.     Column Row Layer    Maximum-Head-Change  Column Row Layer    Maximum-Flux-Residual          L2-NORM 
          0                 1           2             3    7     1       0.1274773304E-01       4    6    1        -0.6348004483E+00      0.1430627354E+01
          0                 2           2             3    7     1      -0.1240004921E-02       4    6    1         0.6347982908E-01      0.1422258251E+00
          0                 3           1             3    7     1       0.8443983831E-04       4    6    1        -0.4443591991E-02      0.9946912446E-02

    ------------------------------------------------
       NWT REQUIRED            3 OUTER ITERATIONS 
       AND A TOTAL OF          5 INNER ITERATIONS.
    ------------------------------------------------

 NO OUTPUT CONTROL FOR STRESS PERIOD   49   TIME STEP   11
 
 SOLVING FOR HEAD 
                                                   Max.-Head-Change                         Max.-Flux-Residual
  Residual-Control   Outer-Iter.   Inner-Iter.     Column Row Layer    Maximum-Head-Change  Column Row Layer    Maximum-Flux-Residual          L2-NORM 
          0                 1           2             3    7     1       0.1249192506E-01       4    6    1        -0.6031924321E+00      0.1388768886E+01
          0                 2           2             3    7     1      -0.1215121837E-02       4    6    1         0.6031905038E-01      0.1380528265E+00
          0                 3           1             3    7     1       0.8274539165E-04       4    6    1        -0.4222337172E-02      0.9654883865E-02

    ------------------------------------------------
       NWT REQUIRED            3 OUTER ITERATIONS 
       AND A TOTAL OF          5 INNER ITERATIONS.
    ------------------------------------------------

 NO OUTPUT CONTROL FOR STRESS PERIOD   49   TIME STEP   12
 
 SOLVING FOR HEAD 
                                                   Max.-Head-Change                         Max.-Flux-Residual
  Residual-Control   Outer-Iter.   Inner-Iter.     Column Row Layer    Maximum-Head-Change  Column Row Layer    Maximum-Flux-Residual          L2-NORM 
          0                 1           2             3    7     1       0.1224185414E-01       4    6    1        -0.5731329980E+00      0.1348913096E+01
          0                 2           2             3    7     1      -0.1190795821E-02       4    6    1         0.5768415989E-01      0.1341876137E+00
          0                 3           1             3    7     1       0.8108888335E-04       4    6    1        -0.4037893616E-02      0.9384386260E-02

    ------------------------------------------------
       NWT REQUIRED            3 OUTER ITERATIONS 
       AND A TOTAL OF          5 INNER ITERATIONS.
    ------------------------------------------------

 NO OUTPUT CONTROL FOR STRESS PERIOD   49   TIME STEP   13
 
 SOLVING FOR HEAD 
                                                   Max.-Head-Change                         Max.-Flux-Residual
  Residual-Control   Outer-Iter.   Inner-Iter.     Column Row Layer    Maximum-Head-Change  Column Row Layer    Maximum-Flux-Residual          L2-NORM 
          0                 1           2             3    7     1       0.1199767803E-01       4    6    1        -0.5442611273E+00      0.1310882669E+01
          0                 2           2             3    7     1      -0.1167045187E-02       4    6    1         0.5442605267E-01      0.1302862320E+00
          0                 3           1             3    7     1       0.7947155347E-04       4    6    1        -0.3809825910E-02      0.9111342510E-02

    ------------------------------------------------
       NWT REQUIRED            3 OUTER ITERATIONS 
       AND A TOTAL OF          5 INNER ITERATIONS.
    ------------------------------------------------

 NO OUTPUT CONTROL FOR STRESS PERIOD   49   TIME STEP   14
 
 SOLVING FOR HEAD 
                                                   Max.-Head-Change                         Max.-Flux-Residual
  Residual-Control   Outer-Iter.   Inner-Iter.     Column Row Layer    Maximum-Head-Change  Column Row Layer    Maximum-Flux-Residual          L2-NORM 
          0                 1           2             3    7     1       0.1175881060E-01       4    6    1        -0.5165036824E+00      0.1274558992E+01
          0                 2           2             3    7     1      -0.1143809950E-02       4    6    1         0.5165031679E-01      0.1266632705E+00
          0                 3           1             3    7     1       0.7788931999E-04       4    6    1        -0.3615524220E-02      0.8857759545E-02

    ------------------------------------------------
       NWT REQUIRED            3 OUTER ITERATIONS 
       AND A TOTAL OF          5 INNER ITERATIONS.
    ------------------------------------------------

 NO OUTPUT CONTROL FOR STRESS PERIOD   49   TIME STEP   15
 
 SOLVING FOR HEAD 
                                                   Max.-Head-Change                         Max.-Flux-Residual
  Residual-Control   Outer-Iter.   Inner-Iter.     Column Row Layer    Maximum-Head-Change  Column Row Layer    Maximum-Flux-Residual          L2-NORM 
          0                 1           2             3    7     1       0.1152588952E-01       4    6    1        -0.4901188259E+00      0.1239961235E+01
          0                 2           2             3    7     1      -0.1121153129E-02       4    6    1         0.4901183877E-01      0.1232119055E+00
          0                 3           1             3    7     1       0.7634647415E-04       4    6    1        -0.3430830628E-02      0.8616221225E-02

    ------------------------------------------------
       NWT REQUIRED            3 OUTER ITERATIONS 
       AND A TOTAL OF          5 INNER ITERATIONS.
    ------------------------------------------------

 NO OUTPUT CONTROL FOR STRESS PERIOD   49   TIME STEP   16
 
 SOLVING FOR HEAD 
                                                   Max.-Head-Change                         Max.-Flux-Residual
  Residual-Control   Outer-Iter.   Inner-Iter.     Column Row Layer    Maximum-Head-Change  Column Row Layer    Maximum-Flux-Residual          L2-NORM 
          0                 1           2             3    7     1       0.1129806830E-01       4    6    1        -0.4650420576E+00      0.1206999167E+01
          0                 2           2             3    7     1      -0.1098992364E-02       4    6    1         0.4650416871E-01      0.1199235628E+00
          0                 3           1             3    7     1       0.7483738880E-04       4    6    1        -0.3255293562E-02      0.8383637843E-02

    ------------------------------------------------
       NWT REQUIRED            3 OUTER ITERATIONS 
       AND A TOTAL OF          5 INNER ITERATIONS.
    ------------------------------------------------

 NO OUTPUT CONTROL FOR STRESS PERIOD   49   TIME STEP   17
 
 SOLVING FOR HEAD 
                                                   Max.-Head-Change                         Max.-Flux-Residual
  Residual-Control   Outer-Iter.   Inner-Iter.     Column Row Layer    Maximum-Head-Change  Column Row Layer    Maximum-Flux-Residual          L2-NORM 
          0                 1           2             3    7     1       0.1107597958E-01       4    6    1        -0.4411828096E+00      0.1175572551E+01
          0                 2           2             3    7     1      -0.1077389435E-02       4    6    1         0.4411824993E-01      0.1168132466E+00
          0                 3           1             3    7     1       0.7336632869E-04       4    6    1        -0.3088279111E-02      0.8168373442E-02

    ------------------------------------------------
       NWT REQUIRED            3 OUTER ITERATIONS 
       AND A TOTAL OF          5 INNER ITERATIONS.
    ------------------------------------------------

 NO OUTPUT CONTROL FOR STRESS PERIOD   49   TIME STEP   18
 
 SOLVING FOR HEAD 
                                                   Max.-Head-Change                         Max.-Flux-Residual
  Residual-Control   Outer-Iter.   Inner-Iter.     Column Row Layer    Maximum-Head-Change  Column Row Layer    Maximum-Flux-Residual          L2-NORM 
          0                 1           2             3    7     1       0.1085901614E-01       4    6    1        -0.4184863640E+00      0.1145581540E+01
          0                 2           2             3    7     1      -0.1056284668E-02       4    6    1         0.4184861070E-01      0.1137949345E+00
          0                 3           1             3    7     1       0.7192917237E-04       4    6    1        -0.2929404257E-02      0.7957229846E-02

    ------------------------------------------------
       NWT REQUIRED            3 OUTER ITERATIONS 
       AND A TOTAL OF          5 INNER ITERATIONS.
    ------------------------------------------------

 NO OUTPUT CONTROL FOR STRESS PERIOD   49   TIME STEP   19
 
 SOLVING FOR HEAD 
                                                   Max.-Head-Change                         Max.-Flux-Residual
  Residual-Control   Outer-Iter.   Inner-Iter.     Column Row Layer    Maximum-Head-Change  Column Row Layer    Maximum-Flux-Residual          L2-NORM 
          0                 1           2             3    7     1       0.1064707335E-01       4    6    1        -0.3968859456E+00      0.1116971468E+01
          0                 2           2             3    7     1      -0.1035668455E-02       4    6    1         0.3968857359E-01      0.1109396587E+00
          0                 3           1             3    7     1       0.7052528498E-04       4    6    1        -0.2778201537E-02      0.7757256436E-02

    ------------------------------------------------
       NWT REQUIRED            3 OUTER ITERATIONS 
       AND A TOTAL OF          5 INNER ITERATIONS.
    ------------------------------------------------

 NO OUTPUT CONTROL FOR STRESS PERIOD   49   TIME STEP   20
 
 SOLVING FOR HEAD 
                                                   Max.-Head-Change                         Max.-Flux-Residual
  Residual-Control   Outer-Iter.   Inner-Iter.     Column Row Layer    Maximum-Head-Change  Column Row Layer    Maximum-Flux-Residual          L2-NORM 
          0                 1           2             3    7     1       0.1044052589E-01       4    6    1        -0.3763195276E+00      0.1089674220E+01
          0                 2           2             3    7     1      -0.1015577058E-02       4    6    1         0.3763193596E-01      0.1082151114E+00
          0                 3           1             3    7     1       0.6915713620E-04       4    6    1        -0.2634236816E-02      0.7566587342E-02

    ------------------------------------------------
       NWT REQUIRED            3 OUTER ITERATIONS 
       AND A TOTAL OF          5 INNER ITERATIONS.
    ------------------------------------------------

 NO OUTPUT CONTROL FOR STRESS PERIOD   49   TIME STEP   21
 
 SOLVING FOR HEAD 
                                                   Max.-Head-Change                         Max.-Flux-Residual
  Residual-Control   Outer-Iter.   Inner-Iter.     Column Row Layer    Maximum-Head-Change  Column Row Layer    Maximum-Flux-Residual          L2-NORM 
          0                 1           2             3    7     1       0.1023900663E-01       4    6    1        -0.3567293323E+00      0.1063625209E+01
          0                 2           2             3    7     1      -0.9959747655E-03       4    6    1         0.3567292011E-01      0.1056149083E+00
          0                 3           1             3    7     1       0.6782229327E-04       4    6    1        -0.2497105610E-02      0.7384579432E-02

    ------------------------------------------------
       NWT REQUIRED            3 OUTER ITERATIONS 
       AND A TOTAL OF          5 INNER ITERATIONS.
    ------------------------------------------------

 NO OUTPUT CONTROL FOR STRESS PERIOD   49   TIME STEP   22
 
 SOLVING FOR HEAD 
                                                   Max.-Head-Change                         Max.-Flux-Residual
  Residual-Control   Outer-Iter.   Inner-Iter.     Column Row Layer    Maximum-Head-Change  Column Row Layer    Maximum-Flux-Residual          L2-NORM 
          0                 1           2             3    7     1       0.1004215384E-01       4    6    1        -0.3380603565E+00      0.1038738354E+01
          0                 2           2             3    7     1      -0.9768263919E-03       4    6    1         0.3380602582E-01      0.1031304563E+00
          0                 3           1             3    7     1       0.6651836034E-04       4    6    1        -0.2366422917E-02      0.7210811057E-02

    ------------------------------------------------
       NWT REQUIRED            3 OUTER ITERATIONS 
       AND A TOTAL OF          5 INNER ITERATIONS.
    ------------------------------------------------

 NO OUTPUT CONTROL FOR STRESS PERIOD   49   TIME STEP   23
 
 SOLVING FOR HEAD 
                                                   Max.-Head-Change                         Max.-Flux-Residual
  Residual-Control   Outer-Iter.   Inner-Iter.     Column Row Layer    Maximum-Head-Change  Column Row Layer    Maximum-Flux-Residual          L2-NORM 
          0                 1           2             3    7     1       0.9850348041E-02       4    6    1        -0.3202761973E+00      0.1014978897E+01
          0                 2           2             3    7     1      -0.9581689502E-03       4    6    1         0.3202761276E-01      0.1007583537E+00
          0                 3           1             3    7     1       0.6524785846E-04       4    6    1        -0.2241933921E-02      0.7044634763E-02

    ------------------------------------------------
       NWT REQUIRED            3 OUTER ITERATIONS 
       AND A TOTAL OF          5 INNER ITERATIONS.
    ------------------------------------------------

 NO OUTPUT CONTROL FOR STRESS PERIOD   49   TIME STEP   24
 
 SOLVING FOR HEAD 
                                                   Max.-Head-Change                         Max.-Flux-Residual
  Residual-Control   Outer-Iter.   Inner-Iter.     Column Row Layer    Maximum-Head-Change  Column Row Layer    Maximum-Flux-Residual          L2-NORM 
          0                 1           2             3    7     1       0.9663219994E-02       4    6    1        -0.3033280225E+00      0.9922895837E+00
          0                 2           2             3    7     1      -0.9399665254E-03       4    6    1         0.3033279778E-01      0.9849302760E-01
          0                 3           1             3    7     1       0.6400834160E-04       4    6    1        -0.2123296806E-02      0.6886089091E-02

    ------------------------------------------------
       NWT REQUIRED            3 OUTER ITERATIONS 
       AND A TOTAL OF          5 INNER ITERATIONS.
    ------------------------------------------------

 NO OUTPUT CONTROL FOR STRESS PERIOD   49   TIME STEP   25
 
 SOLVING FOR HEAD 
                                                   Max.-Head-Change                         Max.-Flux-Residual
  Residual-Control   Outer-Iter.   Inner-Iter.     Column Row Layer    Maximum-Head-Change  Column Row Layer    Maximum-Flux-Residual          L2-NORM 
          0                 1           2             3    7     1       0.9480407048E-02       4    6    1        -0.2871552314E+00      0.9706026767E+00
          0                 2           2             3    7     1      -0.9221838394E-03       4    6    1         0.2871552093E-01      0.9632748938E-01
          0                 3           1             3    7     1       0.6279740719E-04       4    6    1        -0.2010087360E-02      0.6734490932E-02

    ------------------------------------------------
       NWT REQUIRED            3 OUTER ITERATIONS 
       AND A TOTAL OF          5 INNER ITERATIONS.
    ------------------------------------------------

 NO OUTPUT CONTROL FOR STRESS PERIOD   49   TIME STEP   26
 
 SOLVING FOR HEAD 
                                                   Max.-Head-Change                         Max.-Flux-Residual
  Residual-Control   Outer-Iter.   Inner-Iter.     Column Row Layer    Maximum-Head-Change  Column Row Layer    Maximum-Flux-Residual          L2-NORM 
          0                 1           2             3    7     1       0.9302532931E-02       4    6    1        -0.2717304451E+00      0.1067225417E+01
          0                 2           2             7   13     1      -0.1211008521E-02       7   13    1        -0.6575469001E-01      0.1252936166E+00
          0                 3           2             7   13     1       0.1177487391E-03       7   13    1         0.6569031146E-02      0.9921463439E-02
          0                 4           1             7   13     1      -0.8014040989E-05       7   13    1        -0.4593414033E-03      0.5504066087E-03

    ------------------------------------------------
       NWT REQUIRED            4 OUTER ITERATIONS 
       AND A TOTAL OF          7 INNER ITERATIONS.
    ------------------------------------------------

 NO OUTPUT CONTROL FOR STRESS PERIOD   49   TIME STEP   27
 
 SOLVING FOR HEAD 
                                                   Max.-Head-Change                         Max.-Flux-Residual
  Residual-Control   Outer-Iter.   Inner-Iter.     Column Row Layer    Maximum-Head-Change  Column Row Layer    Maximum-Flux-Residual          L2-NORM 
          0                 1           2             3    7     1       0.9128799148E-02       4    6    1        -0.2570256988E+00      0.9309732052E+00
          0                 2           2             3    7     1      -0.8879820382E-03       4    6    1         0.2570257123E-01      0.9249387010E-01
          0                 3           1             3    7     1       0.6046839190E-04       4    6    1        -0.1799180749E-02      0.6474706798E-02

    ------------------------------------------------
       NWT REQUIRED            3 OUTER ITERATIONS 
       AND A TOTAL OF          5 INNER ITERATIONS.
    ------------------------------------------------

 NO OUTPUT CONTROL FOR STRESS PERIOD   49   TIME STEP   28
 
 SOLVING FOR HEAD 
                                                   Max.-Head-Change                         Max.-Flux-Residual
  Residual-Control   Outer-Iter.   Inner-Iter.     Column Row Layer    Maximum-Head-Change  Column Row Layer    Maximum-Flux-Residual          L2-NORM 
          0                 1           2             3    7     1       0.8959465226E-02       4    6    1        -0.2429855564E+00      0.9120791414E+00
          0                 2           2             3    7     1      -0.8715104895E-03       4    6    1         0.2429855850E-01      0.9048941561E-01
          0                 3           1             3    7     1       0.5934674189E-04       4    6    1        -0.1700899786E-02      0.6325926422E-02

    ------------------------------------------------
       NWT REQUIRED            3 OUTER ITERATIONS 
       AND A TOTAL OF          5 INNER ITERATIONS.
    ------------------------------------------------

 NO OUTPUT CONTROL FOR STRESS PERIOD   49   TIME STEP   29
 
 SOLVING FOR HEAD 
                                                   Max.-Head-Change                         Max.-Flux-Residual
  Residual-Control   Outer-Iter.   Inner-Iter.     Column Row Layer    Maximum-Head-Change  Column Row Layer    Maximum-Flux-Residual          L2-NORM 
          0                 1           2             3    7     1       0.8794474766E-02       3    7    1         0.2331406582E+00      0.8939596251E+00
          0                 2           2             3    7     1      -0.8554614392E-03       3    7    1        -0.2331408022E-01      0.8867960138E-01
          0                 3           1             3    7     1       0.5825386140E-04       3    7    1         0.1631986180E-02      0.6199232886E-02

    ------------------------------------------------
       NWT REQUIRED            3 OUTER ITERATIONS 
       AND A TOTAL OF          5 INNER ITERATIONS.
    ------------------------------------------------

 NO OUTPUT CONTROL FOR STRESS PERIOD   49   TIME STEP   30



 STREAM LISTING     PERIOD     49   STEP       30

 LAYER ROW COL. STREAM  RCH.  FLOW INTO     FLOW TO   FLOW OUT OF   OVRLND.     DIRECT     STREAM       STREAM     STREAM     STREAM   STREAMBED  STREAMBED
                SEG.NO.  NO.  STRM. RCH.    AQUIFER    STRM. RCH.    RUNOFF     PRECIP       ET          HEAD       DEPTH      WIDTH   CONDCTNC.   GRADIENT

   1    1    1     1     1    1.4250E+01  1.8169E-01   1.4068E+01  0.000E+00  0.000E+00  0.000E+00  1.09404E+03  9.953E-01  1.011E+01  4.547E-02  1.332E+00
   1    2    2     1     2    1.4068E+01  2.7999E-01   1.3788E+01  0.000E+00  0.000E+00  0.000E+00  1.08905E+03  9.906E-01  1.002E+01  7.016E-02  1.330E+00
   1    3    3     1     3    1.3788E+01  2.3745E-01   1.3551E+01  0.000E+00  0.000E+00  0.000E+00  1.08340E+03  9.852E-01  9.930E+00  5.958E-02  1.328E+00
   1    3    4     1     4    1.3551E+01  2.1755E-01   1.3333E+01  0.000E+00  0.000E+00  0.000E+00  1.07839E+03  9.805E-01  9.848E+00  5.465E-02  1.327E+00
   1    4    5     2     1    1.1333E+01  2.9214E-01   1.1041E+01  0.000E+00  0.000E+00  0.000E+00  1.07268E+03  7.454E-01  1.200E+01  7.800E-02  1.248E+00
   1    5    6     2     2    1.1041E+01  2.2410E-01   1.0817E+01  0.000E+00  0.000E+00  0.000E+00  1.06724E+03  7.350E-01  1.200E+01  6.000E-02  1.245E+00
   1    6    6     2     3    1.0817E+01  2.2356E-01   1.0594E+01  0.000E+00  0.000E+00  0.000E+00  1.06252E+03  7.259E-01  1.200E+01  6.000E-02  1.242E+00
   1    7    6     2     4    1.0594E+01  2.2301E-01   1.0371E+01  0.000E+00  0.000E+00  0.000E+00  1.05779E+03  7.168E-01  1.200E+01  6.000E-02  1.239E+00
   1    8    6     2     5    1.0371E+01  2.2246E-01   1.0148E+01  0.000E+00  0.000E+00  0.000E+00  1.05307E+03  7.076E-01  1.200E+01  6.000E-02  1.236E+00
   1    3    5     3     1    2.0000E+00  2.8252E-01   1.7175E+00  0.000E+00  0.000E+00  0.000E+00  1.07555E+03  1.909E+00  9.636E+00  7.227E-02  1.955E+00
   1    3    6     3     2    1.7175E+00  2.4905E-01   1.4684E+00  0.000E+00  0.000E+00  0.000E+00  1.07264E+03  1.727E+00  8.909E+00  6.682E-02  1.864E+00
   1    3    7     3     3    1.4684E+00  1.9718E-01   1.2712E+00  0.000E+00  0.000E+00  0.000E+00  1.06987E+03  1.555E+00  8.218E+00  5.547E-02  1.777E+00
   1    4    8     3     4    1.2712E+00  2.2567E-01   1.0456E+00  0.000E+00  0.000E+00  0.000E+00  1.06682E+03  1.364E+00  7.455E+00  6.709E-02  1.682E+00
   1    5    8     3     5    1.0456E+00  1.5790E-01   8.8768E-01  0.000E+00  0.000E+00  0.000E+00  1.06362E+03  1.164E+00  6.655E+00  4.991E-02  1.582E+00
   1    6    8     3     6    8.8768E-01  5.5980E-02   8.3170E-01  0.000E+00  0.000E+00  0.000E+00  1.06158E+03  1.036E+00  6.145E+00  1.844E-02  1.518E+00
   1    5   10     4     1    1.0000E+01  9.0919E-02   9.9091E+00  0.000E+00  0.000E+00  0.000E+00  1.07836E+03  6.368E-01  1.000E+01  2.500E-02  1.212E+00
   1    5    9     4     2    9.9091E+00  1.8158E-01   9.7275E+00  0.000E+00  0.000E+00  0.000E+00  1.07154E+03  6.315E-01  1.000E+01  5.000E-02  1.211E+00
   1    6    8     4     3    9.7275E+00  1.2689E-01   9.6006E+00  0.000E+00  0.000E+00  0.000E+00  1.06381E+03  6.256E-01  1.000E+01  3.500E-02  1.209E+00
   1    6    8     5     1    1.0432E+01  2.2686E-01   1.0205E+01  0.000E+00  0.000E+00  0.000E+00  1.05868E+03  6.790E-01  1.542E+01  6.166E-02  1.226E+00
   1    7    7     5     2    1.0205E+01  2.7894E-01   9.9265E+00  0.000E+00  0.000E+00  0.000E+00  1.05417E+03  6.732E-01  1.519E+01  7.594E-02  1.224E+00
   1    8    7     5     3    9.9265E+00  1.9221E-01   9.7343E+00  0.000E+00  0.000E+00  0.000E+00  1.04992E+03  6.676E-01  1.497E+01  5.241E-02  1.223E+00
   1    8    6     5     4    9.7343E+00  1.3577E-01   9.5985E+00  0.000E+00  0.000E+00  0.000E+00  1.04691E+03  6.637E-01  1.482E+01  3.706E-02  1.221E+00
   1    9    6     6     1    1.9747E+01  2.4336E-01   1.9503E+01  0.000E+00  0.000E+00  0.000E+00  1.04378E+03  1.056E+00  1.200E+01  6.000E-02  1.352E+00
   1   10    7     6     2    1.9503E+01  2.4289E-01   1.9260E+01  0.000E+00  0.000E+00  0.000E+00  1.03923E+03  1.048E+00  1.200E+01  6.000E-02  1.349E+00
   1   11    7     6     3    1.9260E+01  2.4241E-01   1.9018E+01  0.000E+00  0.000E+00  0.000E+00  1.03468E+03  1.040E+00  1.200E+01  6.000E-02  1.347E+00
   1   12    7     6     4    1.9018E+01  2.4194E-01   1.8776E+01  0.000E+00  0.000E+00  0.000E+00  1.03012E+03  1.032E+00  1.200E+01  6.000E-02  1.344E+00
   1   13    7     6     5    1.8776E+01  6.0697E-04   1.8775E+01  0.000E+00  0.000E+00  0.000E+00  1.02694E+03  1.028E+00  1.200E+01  2.400E-02  8.430E-03
   1   14    9     7     1    1.5000E+02  1.3561E+00   1.4864E+02  0.000E+00  0.000E+00  0.000E+00  1.03987E+03  2.288E+00  5.529E+01  5.593E-01  8.082E-01
   1   13    8     7     2    1.4864E+02  1.8897E+00   1.4675E+02  0.000E+00  0.000E+00  0.000E+00  1.03478E+03  2.279E+00  5.526E+01  6.148E-01  1.025E+00
   1   13    7     7     3    1.4675E+02  1.5508E+00   1.4520E+02  0.000E+00  0.000E+00  0.000E+00  1.02969E+03  2.270E+00  5.521E+01  5.584E-01  9.257E-01
   1   13    6     8     1    1.6398E+02  9.6804E-01   1.6301E+02  0.000E+00  0.000E+00  0.000E+00  1.02478E+03  2.909E+00  4.219E+01  4.299E-01  7.506E-01
   1   13    5     8     2    1.6301E+02  2.2165E-01   1.6279E+02  0.000E+00  0.000E+00  0.000E+00  1.01853E+03  2.905E+00  4.213E+01  4.293E-01  1.721E-01
   1   13    4     8     3    1.6279E+02 -2.2722E+00   1.6506E+02  0.000E+00  0.000E+00  0.000E+00  1.01229E+03  2.912E+00  4.223E+01  4.303E+00 -1.760E-01
   1   13    3     8     4    1.6506E+02 -3.5617E+00   1.6862E+02  0.000E+00  0.000E+00  0.000E+00  1.00606E+03  2.932E+00  4.251E+01  4.332E+00 -2.741E-01
   1   13    2     8     5    1.6862E+02 -2.5537E+00   1.7118E+02  0.000E+00  0.000E+00  0.000E+00  9.99827E+02  2.952E+00  4.280E+01  4.361E+00 -1.952E-01
   1   13    1     8     6    1.7118E+02 -1.9770E+00   1.7315E+02  0.000E+00  0.000E+00  0.000E+00  9.94841E+02  2.966E+00  4.301E+01  2.630E+00 -2.506E-01
   1    8    6     9     1    0.0000E+00  0.0000E+00   0.0000E+00  0.000E+00  0.000E+00  0.000E+00  1.07875E+03  0.000E+00  4.000E+00  0.000E+00  1.000E+00
   1    8    5     9     2    0.0000E+00  0.0000E+00   0.0000E+00  0.000E+00  0.000E+00  0.000E+00  1.07825E+03  0.000E+00  4.000E+00  0.000E+00  1.000E+00





UNSATURATED ZONE PACKAGE VOLUMETRIC BUDGET FOR  TIME STEP    30 STRESS PERIOD   49
  ------------------------------------------------------------------------------



     CUMULATIVE VOLUMES      L**3       RATES FOR THIS TIME STEP      L**3/T
     ------------------                 ------------------------

           IN:                                      IN:
           ---                                      ---
        INFILTRATION =  2474670250.8594          INFILTRATION =           4.4075

          OUT:                                     OUT:
          ----                                     ----
              UZF ET =  1987916020.1677                UZF ET =           0.7250
        UZF RECHARGE =   163620677.4481          UZF RECHARGE =           0.0185

            IN - OUT =   323133553.2435              IN - OUT =           3.6640

          STORAGE:                                 STORAGE:
          --------                                 --------
      STORAGE CHANGE =   323135057.0253        STORAGE CHANGE =           3.6640

 PERCENT DISCREPANCY IS DIFFERENCE BETWEEN IN-OUT MINUS CHANGE IN STORAGE
 DIVIDED BY THE AVERAGE OF IN AND OUT TIMES 100

 PERCENT DISCREPANCY =          -0.00     PERCENT DISCREPANCY =           0.00






1
  VOLUMETRIC BUDGET FOR AGRICULTURAL FIELDS AT  END OF TIME STEP   30, STRESS PERIOD  49
  ------------------------------------------------------------------------------

     CUMULATIVE VOLUMES      L**3       RATES FOR THIS TIME STEP      L**3/T
     ------------------                 ------------------------

           IN:                                      IN:
           ---                                      ---
               AG WELLS  =   737085632.0000                 AG WELLS  =           0.0000
      DIVERSION SEGMENTS =  1181669376.0000        DIVERSION SEGMENTS =           0.0000
           GW IRRIGATION =           0.0000             GW IRRIGATION =           0.0000
           SW IRRIGATION =           0.0000             SW IRRIGATION =           0.0000
        SYSTEM LOSSES GW =           0.0000          SYSTEM LOSSES GW =           0.0000
        SYSTEM LOSSES SW =           0.0000          SYSTEM LOSSES SW =           0.0000

                TOTAL IN =  1918755072.0000                  TOTAL IN =           0.0000

          OUT:                                     OUT:
          ----                                     ----
               AG WELLS  =           0.0000                 AG WELLS  =           0.0000
      DIVERSION SEGMENTS =           0.0000        DIVERSION SEGMENTS =           0.0000
           GW IRRIGATION =   737085632.0000             GW IRRIGATION =           0.0000
           SW IRRIGATION =  1181689984.0000             SW IRRIGATION =           0.0000
        SYSTEM LOSSES GW =           0.0000          SYSTEM LOSSES GW =           0.0000
        SYSTEM LOSSES SW =           0.0000          SYSTEM LOSSES SW =           0.0000

               TOTAL OUT =  1918775552.0000                 TOTAL OUT =           0.0000

                IN - OUT =      -20480.0000                  IN - OUT =           0.0000

     PERCENT DISCREPANCY =          -0.00         PERCENT DISCREPANCY =           0.00



1
  VOLUMETRIC BUDGET FOR ENTIRE MODEL AT END OF TIME STEP   30, STRESS PERIOD  49
  ------------------------------------------------------------------------------

     CUMULATIVE VOLUMES      L**3       RATES FOR THIS TIME STEP      L**3/T
     ------------------                 ------------------------

           IN:                                      IN:
           ---                                      ---
             STORAGE     =  1197563904.0000               STORAGE     =           2.6086
       CONSTANT HEAD     =           0.0000         CONSTANT HEAD     =           0.0000
     HEAD DEP BOUNDS     =    36153272.0000       HEAD DEP BOUNDS     =           0.2871
      STREAM LEAKAGE     =  1519714432.0000        STREAM LEAKAGE     =          11.4608
        UZF RECHARGE     =   163620640.0000          UZF RECHARGE     =       1.8483E-02
               GW ET     =           0.0000                 GW ET     =           0.0000
     SURFACE LEAKAGE     =           0.0000       SURFACE LEAKAGE     =           0.0000
           AG WELLS      =           0.0000             AG WELLS      =           0.0000

                TOTAL IN =  2917052160.0000                  TOTAL IN =          14.3751

          OUT:                                     OUT:
          ----                                     ----
             STORAGE     =   798030144.0000               STORAGE     =           3.7222
       CONSTANT HEAD     =           0.0000         CONSTANT HEAD     =           0.0000
     HEAD DEP BOUNDS     =    36704976.0000       HEAD DEP BOUNDS     =           0.2885
      STREAM LEAKAGE     =  1342367616.0000        STREAM LEAKAGE     =          10.3646
        UZF RECHARGE     =           0.0000          UZF RECHARGE     =           0.0000
               GW ET     =     2857194.5000                 GW ET     =           0.0000
     SURFACE LEAKAGE     =           0.0000       SURFACE LEAKAGE     =           0.0000
           AG WELLS      =   737085632.0000             AG WELLS      =           0.0000

               TOTAL OUT =  2917045760.0000                 TOTAL OUT =          14.3753

                IN - OUT =        6400.0000                  IN - OUT =      -2.6703E-04

     PERCENT DISCREPANCY =           0.00         PERCENT DISCREPANCY =          -0.00






         TIME SUMMARY AT END OF TIME STEP   30 IN STRESS PERIOD   49
                    SECONDS     MINUTES      HOURS       DAYS        YEARS
                    -----------------------------------------------------------
   TIME STEP LENGTH  87667.      1461.1      24.352      1.0147     2.77799E-03
 STRESS PERIOD TIME 2.63000E+06  43833.      730.56      30.440     8.33397E-02
         TOTAL TIME 1.26325E+08 2.10542E+06  35090.      1462.1      4.0030    
1


 Run end date and time (yyyy/mm/dd hh:mm:ss): 2020/10/06 10:18:14
 Elapsed run time:  4.581 Seconds

