                                  MODFLOW-NWT-SWR1 
      U.S. GEOLOGICAL SURVEY MODULAR FINITE-DIFFERENCE GROUNDWATER-FLOW MODEL
                            VERSION 1.2.0 03/01/2020
                    BASED ON MODFLOW-2005 VERSION 1.12.00 02/03/2017

 LIST FILE: ./output/Agwater1_high.lst
                         UNIT    9

 OPENING ./input/Agwater1.ba6
 FILE TYPE:BAS6   UNIT   75   STATUS:OLD    
 FORMAT:FORMATTED              ACCESS:SEQUENTIAL          

 OPENING ./input/Agwater1.upw
 FILE TYPE:UPW   UNIT    7   STATUS:OLD    
 FORMAT:FORMATTED              ACCESS:SEQUENTIAL          

 OPENING ./input/Agwater1.dis
 FILE TYPE:DIS   UNIT    8   STATUS:OLD    
 FORMAT:FORMATTED              ACCESS:SEQUENTIAL          

 OPENING ./input/Agwater1.nwt
 FILE TYPE:NWT   UNIT   13   STATUS:OLD    
 FORMAT:FORMATTED              ACCESS:SEQUENTIAL          

 OPENING ./input/Agwater1.oc
 FILE TYPE:OC   UNIT   14   STATUS:OLD    
 FORMAT:FORMATTED              ACCESS:SEQUENTIAL          

 OPENING ./input/Agwater1.sfr
 FILE TYPE:SFR   UNIT   15   STATUS:OLD    
 FORMAT:FORMATTED              ACCESS:SEQUENTIAL          

 OPENING ./input/Agwater1.ghb
 FILE TYPE:GHB   UNIT   17   STATUS:OLD    
 FORMAT:FORMATTED              ACCESS:SEQUENTIAL          

 OPENING ./input/Agwater1.uzf
 FILE TYPE:UZF   UNIT   19   STATUS:OLD    
 FORMAT:FORMATTED              ACCESS:SEQUENTIAL          

 OPENING ./input/Agwater1.gag
 FILE TYPE:GAGE   UNIT   32   STATUS:OLD    
 FORMAT:FORMATTED              ACCESS:SEQUENTIAL          

 OPENING ./input/seg1_high.tab
 FILE TYPE:DATA   UNIT   55   STATUS:UNKNOWN
 FORMAT:FORMATTED              ACCESS:SEQUENTIAL          

 OPENING ./input/seg9.tab
 FILE TYPE:DATA   UNIT   56   STATUS:UNKNOWN
 FORMAT:FORMATTED              ACCESS:SEQUENTIAL          

 OPENING ./input/Agwater1.ag
 FILE TYPE:AG   UNIT   57   STATUS:OLD    
 FORMAT:FORMATTED              ACCESS:SEQUENTIAL          

 OPENING ./output/Agwater1_high.hed
 FILE TYPE:DATA   UNIT   62   STATUS:UNKNOWN
 FORMAT:FORMATTED              ACCESS:SEQUENTIAL          

 OPENING ./output/Agwater1gw_high.ts5
 FILE TYPE:DATA   UNIT  105   STATUS:UNKNOWN
 FORMAT:FORMATTED              ACCESS:SEQUENTIAL          

 OPENING ./output/Agwater1SW_high.ts9
 FILE TYPE:DATA   UNIT  107   STATUS:UNKNOWN
 FORMAT:FORMATTED              ACCESS:SEQUENTIAL          

 OPENING ./output/Agwater1SW_ET_high.ts9
 FILE TYPE:DATA   UNIT  108   STATUS:UNKNOWN
 FORMAT:FORMATTED              ACCESS:SEQUENTIAL          

 OPENING ./output/Agwater1_high.uzfot
 FILE TYPE:DATA(BINARY)   UNIT   61   STATUS:UNKNOWN
 FORMAT:UNFORMATTED            ACCESS:SEQUENTIAL          

 OPENING ./output/Agwater1cbc_high.unf
 FILE TYPE:DATA(BINARY)   UNIT  102   STATUS:UNKNOWN
 FORMAT:UNFORMATTED            ACCESS:SEQUENTIAL          

 OPENING ./output/Agwater1_high.uzf1
 FILE TYPE:DATA   UNIT   65   STATUS:UNKNOWN
 FORMAT:FORMATTED              ACCESS:SEQUENTIAL          

 OPENING ./output/Agwater1_high.uzf2
 FILE TYPE:DATA   UNIT   66   STATUS:UNKNOWN
 FORMAT:FORMATTED              ACCESS:SEQUENTIAL          

 OPENING ./output/Agwater1_high.uzf3
 FILE TYPE:DATA   UNIT   67   STATUS:UNKNOWN
 FORMAT:FORMATTED              ACCESS:SEQUENTIAL          

 OPENING ./output/Agwater1_high.uzf4
 FILE TYPE:DATA   UNIT   68   STATUS:UNKNOWN
 FORMAT:FORMATTED              ACCESS:SEQUENTIAL          

 OPENING ./output/Agwater1_high.flw
 FILE TYPE:DATA   UNIT   81   STATUS:UNKNOWN
 FORMAT:FORMATTED              ACCESS:SEQUENTIAL          

 OPENING ./output/Agwater1_high.sg1
 FILE TYPE:DATA   UNIT   83   STATUS:UNKNOWN
 FORMAT:FORMATTED              ACCESS:SEQUENTIAL          

 OPENING ./output/Agwater1_high.sg2
 FILE TYPE:DATA   UNIT   84   STATUS:UNKNOWN
 FORMAT:FORMATTED              ACCESS:SEQUENTIAL          

 OPENING ./output/Agwater1_high.sg3
 FILE TYPE:DATA   UNIT   85   STATUS:UNKNOWN
 FORMAT:FORMATTED              ACCESS:SEQUENTIAL          

 OPENING ./output/Agwater1_high.sg4
 FILE TYPE:DATA   UNIT   86   STATUS:UNKNOWN
 FORMAT:FORMATTED              ACCESS:SEQUENTIAL          

 OPENING ./output/Agwater1_high.sg5
 FILE TYPE:DATA   UNIT   87   STATUS:UNKNOWN
 FORMAT:FORMATTED              ACCESS:SEQUENTIAL          

 OPENING ./output/Agwater1_high.sg6
 FILE TYPE:DATA   UNIT   88   STATUS:UNKNOWN
 FORMAT:FORMATTED              ACCESS:SEQUENTIAL          

 OPENING ./output/Agwater1_high.sg7
 FILE TYPE:DATA   UNIT   89   STATUS:UNKNOWN
 FORMAT:FORMATTED              ACCESS:SEQUENTIAL          

 OPENING ./output/Agwater1_high.sg8
 FILE TYPE:DATA   UNIT   90   STATUS:UNKNOWN
 FORMAT:FORMATTED              ACCESS:SEQUENTIAL          

 OPENING ./output/Agwater1_high.sg9
 FILE TYPE:DATA   UNIT   91   STATUS:UNKNOWN
 FORMAT:FORMATTED              ACCESS:SEQUENTIAL          

 BAS -- BASIC PACKAGE, VERSION 1.1.4, 4/01/2018 INPUT READ FROM UNIT   75
 
 MODFLOW was compiled using mixed precision
 Precision of REAL variables:           6
 Precision of DOUBLE PRECISION variables:          15

 DISCRETIZATION INPUT DATA READ FROM UNIT    8
 #Test problem 2-- Discretization input
 #Example problem using the UZF1 Package
    1 LAYERS        15 ROWS        10 COLUMNS
   49 STRESS PERIOD(S) IN SIMULATION
 MODEL TIME UNIT IS SECONDS
 MODEL LENGTH UNIT IS FEET
  Confining bed flag for each layer:
   0

                     DELR =   5000.00    

                     DELC =   5000.00    



           TOP ELEVATION OF LAYER 1
 READING ON UNIT    8 WITH FORMAT: (10F7.0)            

            1           2           3           4           5           6           7           8           9          10
 ........................................................................................................................
   1    1105.       1105.       0.000       0.000       0.000       0.000       0.000       0.000       0.000       0.000    
   2    1105.       1095.       1105.       0.000       0.000       1100.       1100.       1110.       0.000       0.000    
   3    0.000       1100.       1085.       1080.       1078.       1076.       1073.       1090.       0.000       0.000    
   4    1110.       1100.       1090.       1085.       1076.       1080.       1080.       1070.       1100.       0.000    
   5    1110.       1100.       1085.       1080.       1078.       1074.       1077.       1066.       1075.       1080.    
   6    1105.       1095.       1080.       1077.       1073.       1069.       1070.       1063.       1085.       1095.    
   7    1105.       1090.       1075.       1072.       1070.       1065.       1065.       1069.       1090.       0.000    
   8    0.000       1080.       1070.       1068.       1063.       1060.       1063.       1067.       1090.       0.000    
   9    0.000       1075.       1065.       1062.       1058.       1052.       1055.       1065.       1090.       0.000    
  10    0.000       1070.       1060.       1055.       1046.       1046.       1044.       1060.       1088.       1100.    
  11    0.000       1055.       1050.       1045.       1041.       1042.       1040.       1050.       1075.       0.000    
  12    1027.       1028.       1028.       1032.       1032.       1033.       1032.       1040.       1060.       0.000    
  13    997.0       1004.       1008.       1014.       1020.       1027.       1032.       1038.       1050.       0.000    
  14    0.000       1030.       1040.       1045.       1050.       1050.       1050.       1050.       1044.       0.000    
  15    0.000       0.000       1080.       1080.       1080.       1080.       0.000       0.000       0.000       0.000    



             MODEL LAYER BOTTOM EL. FOR LAYER   1
 READING ON UNIT    8 WITH FORMAT: (10F7.0)            

            1           2           3           4           5           6           7           8           9          10
 ........................................................................................................................
   1    1000.       1000.       0.000       0.000       0.000       0.000       0.000       0.000       0.000       0.000    
   2    1000.       900.0       900.0       0.000       0.000       950.0       950.0       950.0       0.000       0.000    
   3    0.000       850.0       670.0       680.0       680.0       770.0       770.0       890.0       0.000       0.000    
   4    925.0       850.0       650.0       650.0       650.0       680.0       740.0       850.0       950.0       0.000    
   5    925.0       800.0       650.0       600.0       600.0       600.0       650.0       720.0       850.0       950.0    
   6    925.0       800.0       650.0       600.0       550.0       600.0       650.0       720.0       850.0       970.0    
   7    925.0       800.0       650.0       600.0       550.0       600.0       650.0       720.0       950.0       0.000    
   8    0.000       850.0       700.0       650.0       570.0       600.0       700.0       850.0       950.0       0.000    
   9    0.000       850.0       700.0       650.0       540.0       580.0       700.0       850.0       950.0       0.000    
  10    0.000       850.0       700.0       630.0       530.0       580.0       650.0       800.0       900.0       950.0    
  11    0.000       850.0       700.0       620.0       580.0       620.0       700.0       800.0       900.0       0.000    
  12    900.0       830.0       710.0       640.0       600.0       650.0       700.0       800.0       900.0       0.000    
  13    900.0       810.0       750.0       700.0       650.0       700.0       750.0       800.0       900.0       0.000    
  14    0.000       950.0       850.0       850.0       850.0       850.0       850.0       850.0       850.0       0.000    
  15    0.000       0.000       950.0       950.0       950.0       950.0       0.000       0.000       0.000       0.000    


 STRESS PERIOD     LENGTH       TIME STEPS     MULTIPLIER FOR DELT    SS FLAG
 ----------------------------------------------------------------------------
        1         86400.00          1                    1.000         SS
        2         2630000.         30                    1.000         TR
        3         2630000.         30                    1.000         TR
        4         2630000.         30                    1.000         TR
        5         2630000.         30                    1.000         TR
        6         2630000.         30                    1.000         TR
        7         2630000.         30                    1.000         TR
        8         2630000.         30                    1.000         TR
        9         2630000.         30                    1.000         TR
       10         2630000.         30                    1.000         TR
       11         2630000.         30                    1.000         TR
       12         2630000.         30                    1.000         TR
       13         2630000.         30                    1.000         TR
       14         2630000.         30                    1.000         TR
       15         2630000.         30                    1.000         TR
       16         2630000.         30                    1.000         TR
       17         2630000.         30                    1.000         TR
       18         2630000.         30                    1.000         TR
       19         2630000.         30                    1.000         TR
       20         2630000.         30                    1.000         TR
       21         2630000.         30                    1.000         TR
       22         2630000.         30                    1.000         TR
       23         2630000.         30                    1.000         TR
       24         2630000.         30                    1.000         TR
       25         2630000.         30                    1.000         TR
       26         2630000.         30                    1.000         TR
       27         2630000.         30                    1.000         TR
       28         2630000.         30                    1.000         TR
       29         2630000.         30                    1.000         TR
       30         2630000.         30                    1.000         TR
       31         2630000.         30                    1.000         TR
       32         2630000.         30                    1.000         TR
       33         2630000.         30                    1.000         TR
       34         2630000.         30                    1.000         TR
       35         2630000.         30                    1.000         TR
       36         2630000.         30                    1.000         TR
       37         2630000.         30                    1.000         TR
       38         2630000.         30                    1.000         TR
       39         2630000.         30                    1.000         TR
       40         2630000.         30                    1.000         TR
       41         2630000.         30                    1.000         TR
       42         2630000.         30                    1.000         TR
       43         2630000.         30                    1.000         TR
       44         2630000.         30                    1.000         TR
       45         2630000.         30                    1.000         TR
       46         2630000.         30                    1.000         TR
       47         2630000.         30                    1.000         TR
       48         2630000.         30                    1.000         TR
       49         2630000.         30                    1.000         TR

 COMBINED STEADY-STATE AND TRANSIENT SIMULATION



 
 #Test Simulation 2-- Example problem using the UZF1 Package                     
 #Modified from example Problem 1 of SFR1 documentation report                   
 THE FREE FORMAT OPTION HAS BEEN SELECTED



                     BOUNDARY ARRAY FOR LAYER   1
 READING ON UNIT   75 WITH FORMAT: (20I4)              

                1           2           3           4           5           6           7           8           9          10
 ............................................................................................................................
   1            1           1           0           0           0           0           0           0           0           0
   2            1           1           1           0           0           1           1           1           0           0
   3            0           1           1           1           1           1           1           1           0           0
   4            1           1           1           1           1           1           1           1           1           0
   5            1           1           1           1           1           1           1           1           1           1
   6            1           1           1           1           1           1           1           1           1           1
   7            1           1           1           1           1           1           1           1           1           0
   8            0           1           1           1           1           1           1           1           1           0
   9            0           1           1           1           1           1           1           1           1           0
  10            0           1           1           1           1           1           1           1           1           1
  11            0           1           1           1           1           1           1           1           1           0
  12            1           1           1           1           1           1           1           1           1           0
  13            1           1           1           1           1           1           1           1           1           0
  14            0           1           1           1           1           1           1           1           1           0
  15            0           0           1           1           1           1           0           0           0           0

 AQUIFER HEAD WILL BE SET TO   6999.0     AT ALL NO-FLOW NODES (IBOUND=0).



                       INITIAL HEAD FOR LAYER   1
 READING ON UNIT   75 WITH FORMAT: (10F8.0)            

            1           2           3           4           5           6           7           8           9          10
 ........................................................................................................................
   1    1093.       1089.       6999.       6999.       6999.       6999.       6999.       6999.       6999.       6999.    
   2    1090.       1087.       1081.       6999.       6999.       1072.       1071.       1071.       6999.       6999.    
   3    6999.       1079.       1078.       1074.       1072.       1071.       1069.       1068.       6999.       6999.    
   4    1069.       1071.       1070.       1067.       1065.       1064.       1064.       1066.       1066.       6999.    
   5    1065.       1064.       1063.       1062.       1061.       1061.       1060.       1062.       1066.       1068.    
   6    1060.       1058.       1057.       1056.       1056.       1057.       1057.       1059.       1062.       1066.    
   7    1056.       1053.       1052.       1051.       1051.       1052.       1053.       1055.       1056.       6999.    
   8    6999.       1046.       1046.       1046.       1046.       1046.       1048.       1050.       1050.       6999.    
   9    6999.       1039.       1039.       1039.       1040.       1041.       1042.       1043.       1044.       6999.    
  10    6999.       1031.       1032.       1033.       1034.       1035.       1037.       1038.       1039.       1042.    
  11    6999.       1021.       1023.       1027.       1029.       1030.       1032.       1034.       1036.       6999.    
  12    1001.       1009.       1015.       1020.       1023.       1026.       1029.       1030.       1034.       6999.    
  13    994.5      1000.0       1007.       1013.       1019.       1024.       1029.       1034.       1036.       6999.    
  14    6999.       1004.       1009.       1014.       1019.       1024.       1029.       1035.       1039.       6999.    
  15    6999.       6999.       1012.       1015.       1019.       1022.       6999.       6999.       6999.       6999.    

 OUTPUT CONTROL IS SPECIFIED ONLY AT TIME STEPS FOR WHICH OUTPUT IS DESIRED
 HEADS WILL BE SAVED WITH FORMAT: (10F10.3)           
 SAVED HEADS WILL BE LABELED
 COMPACT CELL-BY-CELL BUDGET FILES WILL BE WRITTEN
 HEAD PRINT FORMAT CODE IS   4    DRAWDOWN PRINT FORMAT CODE IS   0
 HEADS WILL BE SAVED ON UNIT   62    DRAWDOWNS WILL BE SAVED ON UNIT    0
 # NWT Input File
 # Test Problem 3 for MODFLOW-NWT
 #HEADTOL  FLUXTOL MAXITEROUT THICKFACT LINMETH IPRNWT IBOTAV OPTIONS DBDREDUCE DBDINCREASE DBDGAMMA MOMFACT BACKFLAG MAXBACKITER BACKTOL BACKREDUCE

 NWT1 -- Newton Solver, VERSION 1.1.4, 4/01/2018
         INPUT READ FROM UNIT 13

 SPECIFIED OPTION:
 SOLVER INPUT VALUES ARE SPECIFIED BY USER
 ***XMD linear solver will be used***
 
   CONVERGENCE CRITERION OF   0.100000E-03 FOR HEAD SOLUTION
   AND A TOLERANCE OF   0.100000E+01 FOR FLOW SOLUTION AND 
   A MAXIMUM OF   500 OUTER ITERATIONS. 


   D-B-D REDUCTION FACTOR OF    0.970000E+00 AND 
   A D-B-D INCREASE FACTOR OF    0.100000E-04 AND 
   A D-B-D RELAXATION OF    0.000000E+00 AND 
   A MOMENTUM FACTOR OF    0.100000E+00 .


 ***BACKTRACKING IS INACTIVE***
 XMD -- LINEAR SOLUTION BY XMD PACKAGE VERSION 1.30
     BY MOTOMU IBARAKI, OHIO STATE UNIVERSITY, COLOMBUS, OH
                 INPUT READ FROM UNIT 13
 ACCELERATION METHOD                    (IACL) =         1
 NODE ORDERING FLAG                   (NORDER) =         0
 LEVEL OF FILL                         (LEVEL) =         7
 MAXIMUM NUMBER OF ORTHOGONALIZATIONS  (NORTH) =         7
 INDEX FOR USING REDUCED SYSTEM      (IREDSYS) =         1
 RESID. REDUCTION CONVERGE CRITERION  (RRCTOL) =  0.000000E+00
 INDEX FOR USING DROP TOLERANCE     (IDROPTOL) =         1
 DROP TOLERANCE VALUE                  (EPSRN) =  0.500000E-02
 CONVERGENCE CRITERIA OF           (HCLOSEXMD) =  0.100000E-03
 MAX. NUMBER OF LINEAR ITERATIONS  (MXITERXMD) =        50


 UPW1 -- UPSTREAM WEIGHTING FLOW PACKAGE, VERSION 1.1.4, 4/01/2018
         INPUT READ FROM UNIT  7

 #Layer-Property Flow Package input for test simulation 2
 CELL-BY-CELL FLOWS WILL BE SAVED ON UNIT  102
 No named parameters

   LAYER FLAGS:
 LAYER       LAYTYP          LAYAVG    CHANI           LAYVKA           LAYWET
 ---------------------------------------------------------------------------
    1             1             0     1.000E+00             0             0

   INTERPRETATION OF LAYER FLAGS:
                        INTERBLOCK     HORIZONTAL    DATA IN
         LAYER TYPE   TRANSMISSIVITY   ANISOTROPY   ARRAY VKA   WETTABILITY
 LAYER   (LAYTYP)        (LAYAVG)      (CHANI)     (LAYVKA)       (LAYWET)
 ---------------------------------------------------------------------------
    1   CONVERTIBLE      HARMONIC     1.000E+00    VERTICAL K  NON-WETTABLE



              HYD. COND. ALONG ROWS FOR LAYER   1
 READING ON UNIT    7 WITH FORMAT: (10F5.0)            

            1           2           3           4           5           6           7           8           9          10
 ........................................................................................................................
   1   2.0000E-03  2.0000E-03   0.000       0.000       0.000       0.000       0.000       0.000       0.000       0.000    
   2   4.0000E-04  2.0000E-03  2.0000E-03   0.000       0.000      4.0000E-04  4.0000E-04  4.0000E-04   0.000       0.000    
   3    0.000      4.0000E-04  2.0000E-03  2.0000E-03  4.0000E-04  4.0000E-04  4.0000E-04  4.0000E-04   0.000       0.000    
   4   4.0000E-04  4.0000E-04  4.0000E-04  2.0000E-03  2.0000E-03  2.0000E-03  4.0000E-04  4.0000E-04  4.0000E-04   0.000    
   5   4.0000E-04  4.0000E-04  4.0000E-04  2.0000E-03  2.0000E-03  2.0000E-03  2.0000E-03  2.0000E-03  2.0000E-03  2.0000E-03
   6   4.0000E-04  4.0000E-04  4.0000E-04  2.0000E-03  2.0000E-03  2.0000E-03  2.0000E-03  2.0000E-03  4.0000E-04  4.0000E-04
   7   4.0000E-04  4.0000E-04  4.0000E-04  2.0000E-03  2.0000E-03  2.0000E-03  2.0000E-03  2.0000E-03  4.0000E-04   0.000    
   8    0.000      4.0000E-04  4.0000E-04  2.0000E-03  2.0000E-03  2.0000E-03  2.0000E-03  4.0000E-04  4.0000E-04   0.000    
   9    0.000      4.0000E-04  4.0000E-04  2.0000E-03  2.0000E-03  2.0000E-03  2.0000E-03  4.0000E-04  4.0000E-04   0.000    
  10    0.000      4.0000E-04  4.0000E-04  2.0000E-03  2.0000E-03  2.0000E-03  2.0000E-03  4.0000E-04  4.0000E-04  4.0000E-04
  11    0.000      4.0000E-04  4.0000E-04  2.0000E-03  2.0000E-03  2.0000E-03  2.0000E-03  4.0000E-04  4.0000E-04   0.000    
  12   4.0000E-04  4.0000E-04  2.0000E-03  2.0000E-03  2.0000E-03  2.0000E-03  2.0000E-03  4.0000E-04  4.0000E-04   0.000    
  13   2.0000E-03  2.0000E-03  2.0000E-03  2.0000E-03  2.0000E-03  2.0000E-03  2.0000E-03  2.0000E-03  2.0000E-03   0.000    
  14    0.000      4.0000E-04  4.0000E-04  4.0000E-04  4.0000E-04  4.0000E-04  4.0000E-04  4.0000E-04  2.0000E-03   0.000    
  15    0.000       0.000      4.0000E-04  4.0000E-04  4.0000E-04  4.0000E-04   0.000       0.000       0.000       0.000    

      VERTICAL HYD. COND. =  1.000000E-06 FOR LAYER   1

         SPECIFIC STORAGE =  1.000000E-06 FOR LAYER   1



                     SPECIFIC YIELD FOR LAYER   1
 READING ON UNIT    7 WITH FORMAT: (10F5.0)            

            1           2           3           4           5           6           7           8           9          10
 ........................................................................................................................
   1   0.2000      0.2000       0.000       0.000       0.000       0.000       0.000       0.000       0.000       0.000    
   2   0.1000      0.2000      0.2000       0.000       0.000      0.1000      0.1000      0.1000       0.000       0.000    
   3    0.000      0.1000      0.2000      0.2000      0.1000      0.1000      0.1000      0.1000       0.000       0.000    
   4   0.1000      0.1000      0.1000      0.2000      0.2000      0.2000      0.1000      0.1000      0.1000       0.000    
   5   0.1000      0.1000      0.1000      0.2000      0.2000      0.2000      0.2000      0.2000      0.2000      0.2000    
   6   0.1000      0.1000      0.1000      0.2000      0.2000      0.2000      0.2000      0.2000      0.1000      0.1000    
   7   0.1000      0.1000      0.1000      0.2000      0.2000      0.2000      0.2000      0.2000      0.1000       0.000    
   8    0.000      0.1000      0.1000      0.2000      0.2000      0.2000      0.2000      0.1000      0.1000       0.000    
   9    0.000      0.1000      0.1000      0.2000      0.2000      0.2000      0.2000      0.1000      0.1000       0.000    
  10    0.000      0.1000      0.1000      0.2000      0.2000      0.2000      0.2000      0.1000      0.1000      0.1000    
  11    0.000      0.1000      0.1000      0.2000      0.2000      0.2000      0.2000      0.1000      0.1000       0.000    
  12   0.1000      0.1000      0.2000      0.2000      0.2000      0.2000      0.2000      0.1000      0.1000       0.000    
  13   0.2000      0.2000      0.2000      0.2000      0.2000      0.2000      0.2000      0.2000      0.2000       0.000    
  14    0.000      0.1000      0.1000      0.1000      0.1000      0.1000      0.1000      0.1000      0.2000       0.000    
  15    0.000       0.000      0.1000      0.1000      0.1000      0.1000       0.000       0.000       0.000       0.000    

 GHB -- GENERAL-HEAD BOUNDARY PACKAGE, VERSION 7, 5/2/2005
         INPUT READ FROM UNIT   17
 No named parameters
 MAXIMUM OF      2 ACTIVE GHB CELLS AT ONE TIME
 CELL-BY-CELL FLOWS WILL BE PRINTED WHEN ICBCFL NOT 0


     0 GHB parameters

 SFR7 -- STREAMFLOW ROUTING PACKAGE, VERSION 1.0.5, 2012-04-05
         INPUT READ FROM UNIT  15
 #SFR2 Package input for Testing supplimental pumping and irrigation
 No named parameters

 PROCESSING SFR2 OPTIONS
 
          2 Specified inflow files will be read with a maximum of       1446 row entries per file
 
Stream loss will be calculated as a factor of the streambed hydraulic conductivity. Multiplication factor is equal to     0.1000000015E+00

 END PROCESSING SFR2 OPTIONS
 


 NUMBER OF STREAM REACHES IS   38

 NUMBER OF STREAM SEGMENTS IS    9

 NUMBER OF STREAM PARAMETERS IS    0

 NUMBER OF STREAM SEGMENTS DEFINED USING PARAMETERS IS              0

 MAXIMUM ERROR FOR STREAM LEAKAGE RATES IS  1.00E-06

 CONSTANT FOR MANNINGS EQUATION IS  1.4860E+00



 STREAM OUTPUT WILL BE WRITTEN TO FILE ON UNIT   81


   STREAM NETWORK DESCRIPTION: 

   LAYER    ROW    COL   SEGMENT   REACH     LENGTH
                          NUMBER   NUMBER    IN CELL        
   --------------------------------------------------
      1      1      1       1        1    4.5000E+03
      1      2      2       1        2    7.0000E+03
      1      3      3       1        3    6.0000E+03
      1      3      4       1        4    5.5500E+03
      1      4      5       2        1    6.5000E+03
      1      5      6       2        2    5.0000E+03
      1      6      6       2        3    5.0000E+03
      1      7      6       2        4    5.0000E+03
      1      8      6       2        5    5.0000E+03
      1      3      5       3        1    5.0000E+03
      1      3      6       3        2    5.0000E+03
      1      3      7       3        3    4.5000E+03
      1      4      8       3        4    6.0000E+03
      1      5      8       3        5    5.0000E+03
      1      6      8       3        6    2.0000E+03
      1      5     10       4        1    2.5000E+03
      1      5      9       4        2    5.0000E+03
      1      6      8       4        3    3.5000E+03
      1      6      8       5        1    4.0000E+03
      1      7      7       5        2    5.0000E+03
      1      8      7       5        3    3.5000E+03
      1      8      6       5        4    2.5000E+03
      1      9      6       6        1    5.0000E+03
      1     10      7       6        2    5.0000E+03
      1     11      7       6        3    5.0000E+03
      1     12      7       6        4    5.0000E+03
      1     13      7       6        5    2.0000E+03
      1     14      9       7        1    5.0000E+03
      1     13      8       7        2    5.5000E+03
      1     13      7       7        3    5.0000E+03
      1     13      6       8        1    5.0000E+03
      1     13      5       8        2    5.0000E+03
      1     13      4       8        3    5.0000E+03
      1     13      3       8        4    5.0000E+03
      1     13      2       8        5    5.0000E+03
      1     13      1       8        6    3.0000E+03
      1      8      6       9        1    3.0000E+03
      1      8      5       9        2    3.0000E+03




 UZF1 -- UNSATURATED FLOW PACKAGE, VERSION 1.5, 09/10/2019
         INPUT READ FROM UNIT 19
 #UZF Package input for test simulation 2
 No named parameters

 PROCESSING UZF OPTIONS
 
 
 INITIAL WATER CONTENT (THTI) WILL BE 
READ FOR THE FIRST SS OR TR STRESS PERIOD
 
 
 RESIDUAL WATER CONTENT (THTR) WILL BE 
READ AND USED FOR THE FIRST TRANSIENT STRESS 
PERIOD
 
 
AIR ENTRY PRESSURE AND ROOT PRESSURE WILL BE 
SPECIFIED BY USER AND UZ ET WILL BE SIMULATED 
AS PRESSURE-HEAD DEPENDENT
 
 
INFILTRATION WILL BE REJECTED USING 
LAND SURFACE K
 
 
HYDRAULIC CONDUCTIVITY OF LAND SURFACE 
WILL BE READ
 

 END PROCESSING UZF OPTIONS



            AREAL EXTENT OF UZ FLOW
 READING ON UNIT   19 WITH FORMAT: (20I4)              

                1           2           3           4           5           6           7           8           9          10
 ............................................................................................................................
   1            1           1           0           0           0           0           0           0           0           0
   2            1           1           1           0           0           1           1           1           0           0
   3            0           1           1           1           1           1           1           1           0           0
   4            1           1           1           1           1           1           1           1           1           0
   5            1           1           1           1           1           1           1           1           1           1
   6            1           1           1           1           1           1           1           1           1           1
   7            1           1           1           1           1           1           1           1           1           0
   8            0           1           1           1           1           1           1           1           1           0
   9            0           1           1           1           1           1           1           1           1           0
  10            0           1           1           1           1           1           1           1           1           1
  11            0           1           1           1           1           1           1           1           1           0
  12            1           1           1           1           1           1           1           1           1           0
  13            1           1           1           1           1           1           1           1           1           0
  14            0           1           1           1           1           1           1           1           1           0
  15            0           0           1           1           1           1           0           0           0           0
 OPTION 1 -- RECHARGE IN UZF TO TOP LAYER ONLY 



            ROUTING OVERLAND RUNOFF
 READING ON UNIT   19 WITH FORMAT: (20I4)              

                1           2           3           4           5           6           7           8           9          10
 ............................................................................................................................
   1            1           1           0           0           0           0           0           0           0           0
   2            1           1           1           0           0           3           3           3           0           0
   3            0           1           1           1           3           3           3           3           0           0
   4            8           8           2           2           2           2           2           3           3           0
   5            8           8           8           8           2           2           2           3           4           4
   6            8           8           8           8           8           2           2           4           4           4
   7            8           8           8           8           8           2           5           5           5           0
   8            0           8           8           8           8           2           5           5           5           0
   9            0           8           8           8           8           6           6           6           6           0
  10            0           8           8           8           8           6           6           6           6           6
  11            0           8           8           8           8           8           6           6           7           0
  12            8           8           8           8           8           8           6           7           7           0
  13            8           8           8           8           8           8           7           7           7           0
  14            0           8           8           8           8           8           7           7           7           0
  15            0           0           8           8           8           8           0           0           0           0



               SATURATED VERTICAL K
 READING ON UNIT   19 WITH FORMAT: (10F4.0)            

            1           2           3           4           5           6           7           8           9          10
 ........................................................................................................................
   1   4.6000E-05  4.6000E-05   0.000       0.000       0.000       0.000       0.000       0.000       0.000       0.000    
   2   4.6000E-05  4.6000E-05  4.6000E-05   0.000       0.000      4.6000E-05  4.6000E-05  4.6000E-05   0.000       0.000    
   3    0.000      4.6000E-05  4.6000E-05  4.6000E-05  4.6000E-05  4.6000E-05  4.6000E-05  4.6000E-05   0.000       0.000    
   4   4.6000E-05  4.6000E-05  4.6000E-05  4.6000E-05  4.6000E-05  4.6000E-05  4.6000E-05  4.6000E-05  4.6000E-05   0.000    
   5   4.6000E-05  4.6000E-05  4.6000E-05  4.6000E-05  4.6000E-05  4.6000E-05  4.6000E-05  4.6000E-05  4.6000E-05  4.6000E-05
   6   4.6000E-05  4.6000E-05  4.6000E-05  4.6000E-05  4.6000E-05  4.6000E-05  4.6000E-05  4.6000E-05  4.6000E-05  4.6000E-05
   7   4.6000E-05  4.6000E-05  4.6000E-05  4.6000E-05  4.6000E-05  4.6000E-05  4.6000E-05  4.6000E-05  4.6000E-05   0.000    
   8    0.000      4.6000E-05  4.6000E-05  4.6000E-05  4.6000E-05  4.6000E-05  4.6000E-05  4.6000E-05  4.6000E-05   0.000    
   9    0.000      4.6000E-05  4.6000E-05  4.6000E-05  4.6000E-05  4.6000E-05  4.6000E-05  4.6000E-05  4.6000E-05   0.000    
  10    0.000      4.6000E-05  4.6000E-05  4.6000E-05  4.6000E-05  4.6000E-05  4.6000E-05  4.6000E-05  4.6000E-05  4.6000E-05
  11    0.000      4.6000E-05  4.6000E-05  4.6000E-05  4.6000E-05  4.6000E-05  4.6000E-05  4.6000E-05  4.6000E-05   0.000    
  12   4.6000E-05  4.6000E-05  4.6000E-05  4.6000E-05  4.6000E-05  4.6000E-05  4.6000E-05  4.6000E-05  4.6000E-05   0.000    
  13   4.6000E-05  4.6000E-05  4.6000E-05  4.6000E-05  4.6000E-05  4.6000E-05  4.6000E-05  4.6000E-05  4.6000E-05   0.000    
  14    0.000      4.6000E-05  4.6000E-05  4.6000E-05  4.6000E-05  4.6000E-05  4.6000E-05  4.6000E-05  4.6000E-05   0.000    
  15    0.000       0.000      4.6000E-05  4.6000E-05  4.6000E-05  4.6000E-05   0.000       0.000       0.000       0.000    



            LAND SURFACE VERTICAL K
 READING ON UNIT   19 WITH FORMAT: (10F4.0)            

            1           2           3           4           5           6           7           8           9          10
 ........................................................................................................................
   1   1.0000E-05  1.0000E-05   0.000       0.000       0.000       0.000       0.000       0.000       0.000       0.000    
   2   1.0000E-05  1.0000E-05  1.0000E-05   0.000       0.000      1.0000E-05  1.0000E-05  1.0000E-05   0.000       0.000    
   3    0.000      1.0000E-05  1.0000E-05  1.0000E-05  1.0000E-05  1.0000E-05  1.0000E-05  1.0000E-05   0.000       0.000    
   4   1.0000E-05  1.0000E-05  1.0000E-05  1.0000E-05  1.0000E-05  1.0000E-05  1.0000E-05  1.0000E-05  1.0000E-05   0.000    
   5   1.0000E-05  1.0000E-05  1.0000E-05  1.0000E-05  1.0000E-05  1.0000E-05  1.0000E-05  1.0000E-05  1.0000E-05  1.0000E-05
   6   1.0000E-05  1.0000E-05  1.0000E-05  1.0000E-05  1.0000E-05  1.0000E-05  1.0000E-05  1.0000E-05  1.0000E-05  1.0000E-05
   7   1.0000E-05  1.0000E-05  1.0000E-05  1.0000E-05  1.0000E-05  1.0000E-05  1.0000E-05  1.0000E-05  1.0000E-05   0.000    
   8    0.000      1.0000E-05  1.0000E-05  1.0000E-05  1.0000E-05  1.0000E-05  1.0000E-05  1.0000E-05  1.0000E-05   0.000    
   9    0.000      1.0000E-05  1.0000E-05  1.0000E-05  1.0000E-05  1.0000E-05  1.0000E-05  1.0000E-05  1.0000E-05   0.000    
  10    0.000      1.0000E-05  1.0000E-05  1.0000E-05  1.0000E-05  1.0000E-05  1.0000E-05  1.0000E-05  1.0000E-05  1.0000E-05
  11    0.000      1.0000E-05  1.0000E-05  1.0000E-05  1.0000E-05  1.0000E-05  1.0000E-05  1.0000E-05  1.0000E-05   0.000    
  12   1.0000E-05  1.0000E-05  1.0000E-05  1.0000E-05  1.0000E-05  1.0000E-05  1.0000E-05  1.0000E-05  1.0000E-05   0.000    
  13   1.0000E-05  1.0000E-05  1.0000E-05  1.0000E-05  1.0000E-05  1.0000E-05  1.0000E-05  1.0000E-05  1.0000E-05   0.000    
  14    0.000      1.0000E-05  1.0000E-05  1.0000E-05  1.0000E-05  1.0000E-05  1.0000E-05  1.0000E-05  1.0000E-05   0.000    
  15    0.000       0.000      1.0000E-05  1.0000E-05  1.0000E-05  1.0000E-05   0.000       0.000       0.000       0.000    

     BROOKS-COREY EPSILON =   7.50000    

  SATURATED WATER CONTENT =  0.380000    

   RESIDUAL WATER CONTENT =  0.200000    

    INITIAL WATER CONTENT =  0.200000    

UNSATURATED FLOW RESULTS WILL BE PRINTED TO SEPARATE FILES FOR SELECTED MODEL CELLS, AND TIME STEPS AS DEFINED BY OUTPUT CONTROL PACKAGE 

SELECTED MODEL CELLS ARE: 
 ROW NUMBER  COLUMN NUMBER  FORTRAN UNIT NUMBER  OUTPUT OPTION


       6             4                 65                 1
       6             5                 66                 2
       8             4                 67                 3
       0             0                 68                 4



   9 GAGING STATIONS WERE SPECIFIED.
     (Lakes are identified by a negative value of the Lake Number)
     RECORDS WILL BE WRITTEN TO SEPARATE OUTPUT FILES REPRESENTED BY FOLLOWING UNIT NUMBERS:

 Stream Gages:
  GAGE #   SEGMENT   REACH   UNIT   OUTTYPE
       1       1       4      83       1
       2       2       5      84       1
       3       3       5      85       1
       4       4       3      86       1
       5       5       4      87       4
       6       6       5      88       4
       7       7       3      89       4
       8       8       6      90       4
       9       9       1      91       5





 AG -- AG PACKAGE FOR NWT VERSION 1.2.0,  3/03/2020 INPUT READ FROM UNIT   57
 # AG options

 PROCESSING AG OPTIONS
 
 AGRICULTURAL DEMANDS WILL BE CALCULATED USING ET DEFICIT
 
 
 OPTION TO APPLY SURFACE WATER AS IRRIGATION IS ACTIVE. DIVERTED SURFACE WATER WILL BE APPLIED TO          1 CELLS/RHUS.
 
 
 OPTION TO PUMP SUPPLEMENTARY WATER FOR SURFACE DIVERSION SHORTFALL IS ACTIVATED.  A TOTAL OF             6 SUPPLEMENTAL WELLS ARE ACTIVE
 
 
 OPTION TO APPLY PUMPED WATER AS IRRIGATION IS ACTIVE. PUMPED IRRIGATION WATER WILL BE APPLIED TO          6 CELLS/RHUS.
 
 
 THE MAXIMUM NUMBER OF WELLS FOR SUPPLEMENTING DIVERSIONS OR APPLYING IRRIGATION IS          6 WELLS.
 
 
  UNFORMATTED CELL BY CELL RATES FOR SUP AND IRR WELLS WILL BE SAVED TO FILE UNIT NUMBER         -2
 
 
  UNFORMATTED CELL BY CELL RATES FOR SUP AND IRR WELLS WILL BE SAVED TO FILE UNIT NUMBER         -2
 
 
  UNFORMATTED CELL BY CELL RATES FOR SUP AND IRR WELLS WILL BE SAVED TO FILE UNIT NUMBER         -2
 
 
  UNFORMATTED CELL BY CELL RATES FOR SUP AND IRR WELLS WILL BE SAVED TO FILE UNIT NUMBER         -2
 
 
  GROUND WATER IRRIGATION, POTENTIAL AND ACTUAL ET WILL BE SAVED TO TIMES SERIES OUTPUT FILES.
 
 
  SURFACE WATER IRRIGATION, POTENTIAL AND ACTUAL ET WILL BE SAVED TO TIMES SERIES OUTPUT FILES.
 
 
  SURFACE WATER IRRIGATION, POTENTIAL AND ACTUAL ET WILL BE SAVED TO TIMES SERIES OUTPUT FILES.
 

 END PROCESSING AG OPTIONS
 # AG time series

 PROCESSING TIME SERIES

 FINISHED READING TIME SERIES
 A total number of          1 AG output time series files were activated for SURFACE WATER 
 A total number of          1 AG output time series files were activated for GROUNDWATER 
 A total number of          1 AG output time series files were activated for SURFACE WATER ET
 A total number of          0 AG output time series files were activated for GROUNDWATER ET
 No ponds active in the AG Package
1
                            STRESS PERIOD NO.    1, LENGTH =   86400.00    
                            -----------------------------------------------

                              NUMBER OF TIME STEPS =     1

                               MULTIPLIER FOR DELT =     1.000

                            INITIAL TIME STEP SIZE =   86400.00    

 BOUND. NO. LAYER   ROW   COL     STAGE      CONDUCTANCE         
 ----------------------------------------------------------------
      1      1     13      1       988.0          0.3800E-01
      2      1     14      9       1045.          0.3800E-01

      2 GHB CELLS



 CLASSIFICATION & COUNT OF STREAM SEGMENTS BASED ON SOURCE OF INFLOW:

                HEADWATER     DIVERSION     RECEIVES TRIBUTARY FLOW
                ---------     ---------     -----------------------
                     3              2               4



                    INPUT DATA FOR EACH STREAM SEGMENT
 ---------------------------------------------------------------------------------------------

 SEGMENT    SEG.     INFLOW   OVERLAND   STREAM    STREAM   ICALC  OUTFLOW  DIVERSION PRIORITY
    NO.    LENGTH     RATE     RUNOFF      ET       PPT.    METH.  TO SEG.  FROM SEG.    NO.

      1  2.305E+04 2.500E+01 0.000E+00 0.000E+00 0.000E+00    4        2        0        0
      2  2.650E+04 0.000E+00 0.000E+00 0.000E+00 0.000E+00    1        6        0        0
      3  2.750E+04 2.000E+00 0.000E+00 0.000E+00 0.000E+00    0        5        1        0
      4  1.100E+04 1.000E+01 0.000E+00 0.000E+00 0.000E+00    1        5        0        0
      5  1.500E+04 0.000E+00 0.000E+00 0.000E+00 0.000E+00    3        6        0        0
      6  2.200E+04 0.000E+00 0.000E+00 0.000E+00 0.000E+00    1        8        0        0
      7  1.550E+04 1.500E+02 0.000E+00 0.000E+00 0.000E+00    2        8        0        0
      8  2.800E+04 0.000E+00 0.000E+00 0.000E+00 0.000E+00    2        0        0        0
      9  6.000E+03 0.000E+00 0.000E+00 0.000E+00 0.000E+00    1        0        2        0


         STREAMBED PROPERTIES AND STREAM DIMENSIONS

 SEGMENT     BED HYD. COND.      BED THICKNESS     ELEV.-TOP OF BED     WIDTH OF STREAM     DEPTH OF STREAM    STREAM ROUGHNESS
    No.     UPPER     LOWER     UPPER     LOWER     UPPER     LOWER     UPPER     LOWER     UPPER     LOWER   CHANNEL      BANK

     1  3.000E-05 3.000E-05 3.000E+00 3.000E+00 1.095E+03 1.075E+03
     2  3.000E-05 3.000E-05 3.000E+00 3.000E+00 1.075E+03 1.050E+03 1.200E+01 1.200E+01                     3.000E-02
     3  3.000E-05 3.000E-05 2.000E+00 2.000E+00 1.075E+03 1.060E+03 1.000E+01 6.000E+00 2.000E+00 1.000E+00
     4  3.000E-05 3.000E-05 3.000E+00 3.000E+00 1.080E+03 1.060E+03 1.000E+01 1.000E+01                     3.000E-02
     5  3.000E-05 3.000E-05 3.000E+00 3.000E+00 1.060E+03 1.045E+03
     6  3.000E-05 3.000E-05 3.000E+00 3.000E+00 1.045E+03 1.025E+03 1.200E+01 1.200E+01                     3.000E-02
     7  6.000E-05 6.000E-05 3.000E+00 3.000E+00 1.040E+03 1.025E+03                                         2.500E-02 4.500E-02
     8  6.000E-05 6.000E-05 3.000E+00 3.000E+00 1.025E+03 9.900E+02                                         2.500E-02 4.500E-02
     9  0.000E+00 0.000E+00 3.000E+00 3.000E+00 1.079E+03 1.078E+03 4.000E+00 4.000E+00                     3.000E-02

  EIGHT POINT CROSS-SECTION DATA FOR SEGMENTS WITH ICALC = 2
    X VALUES X VALUES START FROM LEFT SIDE LOOKING DOWNSTREAM

     SEGMENT NO.        X1        X2        X3        X4        X5        X6        X7        X8
            7      0.000E+00 1.000E+01 8.000E+01 1.000E+02 1.500E+02 1.700E+02 2.400E+02 2.500E+02
            8      0.000E+00 1.000E+01 8.000E+01 1.000E+02 1.500E+02 1.700E+02 2.400E+02 2.500E+02

    Z VALUES ARE RELATIVE TO STREAMBED ELEVATION

     SEGMENT NO.          Z1        Z2        Z3        Z4        Z5        Z6        Z7        Z8
            7      2.000E+01 1.300E+01 1.000E+01 2.000E+00 0.000E+00 1.000E+01 1.300E+01 2.000E+01
            8      2.500E+01 1.700E+01 1.300E+01 4.000E+00 0.000E+00 1.000E+01 1.600E+01 2.000E+01

 STREAMFLOW RELATION WITH DEPTH IS BASED ON EQUATION Q = CDPTH*(DEPTH)**FDPTH
 STREAMFLOW RELATION WITH WIDTH IS BASED ON EQUATION Q = AWDTH*(WIDTH)**BWDTH

 SEGMENT NO.      CDPTH     FDPTH    AWDTH     BWDTH

          5 3.000E-01 3.500E-01 3.800E+00 6.000E-01

 STREAMFLOW RELATION WITH DEPTH AND WIDTH IS BASED ON TABULATED VALUES

  SEGMENT NO.   STREAMFLOW       DEPTH       WIDTH

          1     5.0000E-01   2.5000E-01   3.0000E+00
          1     1.0000E+00   4.0000E-01   3.5000E+00
          1     2.0000E+00   5.5000E-01   4.2000E+00
          1     4.0000E+00   7.0000E-01   5.3000E+00
          1     7.0000E+00   8.0000E-01   7.0000E+00
          1     1.0000E+01   9.0000E-01   8.5000E+00
          1     2.0000E+01   1.1000E+00   1.2000E+01
          1     3.0000E+01   1.2500E+00   1.4000E+01
          1     5.0000E+01   1.4000E+00   1.7000E+01
          1     7.5000E+01   1.7000E+00   2.0000E+01
          1     1.0000E+02   1.8000E+00   2.2000E+01



TABULAR INFLOWS WERE READ FOR SEGMENT      1
FROM FILE UNIT NUMBER     55

          TIMES                    INFLOWS
         0.0000000000E+00     0.3750000000E+01
         0.8640000000E+05     0.1650000000E+02
         0.2760000000E+07     0.3150000000E+02
         0.5270000000E+07     0.5775000000E+02
         0.7950000000E+07     0.2100000000E+02
         0.1050000000E+08     0.7425000000E+02
         0.1320000000E+08     0.6225000000E+02
         0.1580000000E+08     0.5625000000E+02
         0.1850000000E+08     0.4575000000E+02
         0.2120000000E+08     0.3525000000E+02
         0.2380000000E+08     0.2625000000E+02
         0.2640000000E+08     0.1950000000E+02
         0.2900000000E+08     0.1725000000E+02
         0.3170000000E+08     0.1425000000E+02
         0.3440000000E+08     0.1575000000E+02
         0.3680000000E+08     0.7350000000E+02
         0.3950000000E+08     0.5625000000E+02
         0.4210000000E+08     0.4725000000E+02
         0.4480000000E+08     0.4350000000E+02
         0.4730000000E+08     0.4050000000E+02
         0.5000000000E+08     0.2775000000E+02
         0.5270000000E+08     0.1875000000E+02
         0.5530000000E+08     0.1650000000E+02
         0.5800000000E+08     0.1575000000E+02
         0.6060000000E+08     0.1500000000E+02
         0.6320000000E+08     0.1425000000E+02
         0.6330000000E+08     0.1650000000E+02
         0.6600000000E+08     0.3150000000E+02
         0.6850000000E+08     0.5775000000E+02
         0.7120000000E+08     0.2100000000E+02
         0.7370000000E+08     0.7425000000E+02
         0.7640000000E+08     0.6225000000E+02
         0.7900000000E+08     0.5625000000E+02
         0.8170000000E+08     0.4575000000E+02
         0.8440000000E+08     0.3525000000E+02
         0.8700000000E+08     0.2625000000E+02
         0.8960000000E+08     0.1950000000E+02
         0.9220000000E+08     0.1725000000E+02
         0.9490000000E+08     0.1425000000E+02
         0.9760000000E+08     0.1575000000E+02
         0.1000000000E+09     0.7350000000E+02
         0.1030000000E+09     0.5625000000E+02
         0.1050000000E+09     0.4725000000E+02
         0.1080000000E+09     0.4350000000E+02
         0.1110000000E+09     0.4050000000E+02
         0.1130000000E+09     0.2775000000E+02
         0.1160000000E+09     0.1875000000E+02
         0.1190000000E+09     0.1650000000E+02
         0.1210000000E+09     0.1575000000E+02
         0.1240000000E+09     0.1500000000E+02
         0.1260000000E+09     0.1425000000E+02
TABULAR INFLOWS WERE READ FOR SEGMENT      9
FROM FILE UNIT NUMBER     56

          TIMES                    INFLOWS
         0.0000000000E+00     0.1000000000E+03
         0.8640000000E+05     0.1000000000E+03
         0.1730000000E+06     0.1000000000E+03
         0.2590000000E+06     0.1000000000E+03
         0.3460000000E+06     0.1000000000E+03
         0.4320000000E+06     0.1000000000E+03
         0.5180000000E+06     0.1000000000E+03
         0.6050000000E+06     0.1000000000E+03
         0.6910000000E+06     0.1000000000E+03
         0.7780000000E+06     0.1000000000E+03
         0.8640000000E+06     0.1000000000E+03
         0.9500000000E+06     0.1000000000E+03
         0.1040000000E+07     0.1000000000E+03
         0.1120000000E+07     0.1000000000E+03
         0.1210000000E+07     0.1000000000E+03
         0.1300000000E+07     0.1000000000E+03
         0.1380000000E+07     0.1000000000E+03
         0.1470000000E+07     0.1000000000E+03
         0.1560000000E+07     0.1000000000E+03
         0.1640000000E+07     0.1000000000E+03
         0.1730000000E+07     0.1000000000E+03
         0.1810000000E+07     0.1000000000E+03
         0.1900000000E+07     0.1000000000E+03
         0.1990000000E+07     0.1000000000E+03
         0.2070000000E+07     0.1000000000E+03
         0.2160000000E+07     0.1000000000E+03
         0.2250000000E+07     0.1000000000E+03
         0.2330000000E+07     0.1000000000E+03
         0.2420000000E+07     0.1000000000E+03
         0.2510000000E+07     0.1000000000E+03
         0.2590000000E+07     0.1000000000E+03
         0.2680000000E+07     0.1000000000E+03
         0.2760000000E+07     0.1000000000E+03
         0.2850000000E+07     0.1000000000E+03
         0.2940000000E+07     0.1000000000E+03
         0.3020000000E+07     0.1000000000E+03
         0.3110000000E+07     0.1000000000E+03
         0.3200000000E+07     0.1000000000E+03
         0.3280000000E+07     0.1000000000E+03
         0.3370000000E+07     0.1000000000E+03
         0.3460000000E+07     0.1000000000E+03
         0.3540000000E+07     0.1000000000E+03
         0.3630000000E+07     0.1000000000E+03
         0.3720000000E+07     0.1000000000E+03
         0.3800000000E+07     0.1000000000E+03
         0.3890000000E+07     0.1000000000E+03
         0.3970000000E+07     0.1000000000E+03
         0.4060000000E+07     0.1000000000E+03
         0.4150000000E+07     0.1000000000E+03
         0.4230000000E+07     0.1000000000E+03
         0.4320000000E+07     0.1000000000E+03
         0.4410000000E+07     0.1000000000E+03
         0.4490000000E+07     0.1000000000E+03
         0.4580000000E+07     0.1000000000E+03
         0.4670000000E+07     0.1000000000E+03
         0.4750000000E+07     0.1000000000E+03
         0.4840000000E+07     0.1000000000E+03
         0.4920000000E+07     0.1000000000E+03
         0.5010000000E+07     0.1000000000E+03
         0.5100000000E+07     0.1000000000E+03
         0.5180000000E+07     0.1000000000E+03
         0.5270000000E+07     0.1000000000E+03
         0.5360000000E+07     0.1000000000E+03
         0.5440000000E+07     0.1000000000E+03
         0.5530000000E+07     0.1000000000E+03
         0.5620000000E+07     0.1000000000E+03
         0.5700000000E+07     0.1000000000E+03
         0.5790000000E+07     0.1000000000E+03
         0.5880000000E+07     0.1000000000E+03
         0.5960000000E+07     0.1000000000E+03
         0.6050000000E+07     0.1000000000E+03
         0.6130000000E+07     0.1000000000E+03
         0.6220000000E+07     0.1000000000E+03
         0.6310000000E+07     0.1000000000E+03
         0.6390000000E+07     0.1000000000E+03
         0.6480000000E+07     0.1000000000E+03
         0.6570000000E+07     0.1000000000E+03
         0.6650000000E+07     0.1000000000E+03
         0.6740000000E+07     0.1000000000E+03
         0.6830000000E+07     0.1000000000E+03
         0.6910000000E+07     0.1000000000E+03
         0.7000000000E+07     0.1000000000E+03
         0.7080000000E+07     0.1000000000E+03
         0.7170000000E+07     0.1000000000E+03
         0.7260000000E+07     0.1000000000E+03
         0.7340000000E+07     0.1000000000E+03
         0.7430000000E+07     0.1000000000E+03
         0.7520000000E+07     0.1000000000E+03
         0.7600000000E+07     0.1000000000E+03
         0.7690000000E+07     0.1000000000E+03
         0.7780000000E+07     0.1000000000E+03
         0.7860000000E+07     0.1000000000E+03
         0.7950000000E+07     0.1000000000E+03
         0.8040000000E+07     0.1000000000E+03
         0.8120000000E+07     0.1000000000E+03
         0.8210000000E+07     0.1000000000E+03
         0.8290000000E+07     0.1000000000E+03
         0.8380000000E+07     0.1000000000E+03
         0.8470000000E+07     0.1000000000E+03
         0.8550000000E+07     0.1000000000E+03
         0.8640000000E+07     0.1000000000E+03
         0.8730000000E+07     0.1000000000E+03
         0.8810000000E+07     0.1000000000E+03
         0.8900000000E+07     0.1000000000E+03
         0.8990000000E+07     0.1000000000E+03
         0.9070000000E+07     0.1000000000E+03
         0.9160000000E+07     0.1000000000E+03
         0.9240000000E+07     0.1000000000E+03
         0.9330000000E+07     0.1000000000E+03
         0.9420000000E+07     0.1000000000E+03
         0.9500000000E+07     0.1000000000E+03
         0.9590000000E+07     0.1000000000E+03
         0.9680000000E+07     0.1000000000E+03
         0.9760000000E+07     0.1000000000E+03
         0.9850000000E+07     0.1000000000E+03
         0.9940000000E+07     0.1000000000E+03
         0.1000000000E+08     0.1000000000E+03
         0.1010000000E+08     0.1000000000E+03
         0.1020000000E+08     0.1000000000E+03
         0.1030000000E+08     0.1000000000E+03
         0.1040000000E+08     0.1000000000E+03
         0.1050000000E+08     0.1000000000E+03
         0.1050000000E+08     0.1000000000E+03
         0.1060000000E+08     0.1000000000E+03
         0.1070000000E+08     0.1000000000E+03
         0.1080000000E+08     0.1000000000E+03
         0.1090000000E+08     0.1000000000E+03
         0.1100000000E+08     0.1000000000E+03
         0.1110000000E+08     0.1000000000E+03
         0.1110000000E+08     0.1000000000E+03
         0.1120000000E+08     0.1000000000E+03
         0.1130000000E+08     0.1000000000E+03
         0.1140000000E+08     0.1000000000E+03
         0.1150000000E+08     0.1000000000E+03
         0.1160000000E+08     0.1000000000E+03
         0.1170000000E+08     0.1000000000E+03
         0.1180000000E+08     0.1000000000E+03
         0.1180000000E+08     0.1000000000E+03
         0.1190000000E+08     0.1000000000E+03
         0.1200000000E+08     0.1000000000E+03
         0.1210000000E+08     0.1000000000E+03
         0.1220000000E+08     0.1000000000E+03
         0.1230000000E+08     0.1000000000E+03
         0.1240000000E+08     0.1000000000E+03
         0.1240000000E+08     0.1000000000E+03
         0.1250000000E+08     0.1000000000E+03
         0.1260000000E+08     0.1000000000E+03
         0.1270000000E+08     0.1000000000E+03
         0.1280000000E+08     0.1000000000E+03
         0.1290000000E+08     0.1000000000E+03
         0.1300000000E+08     0.1000000000E+03
         0.1300000000E+08     0.1000000000E+03
         0.1310000000E+08     0.1000000000E+03
         0.1320000000E+08     0.1000000000E+03
         0.1330000000E+08     0.1000000000E+03
         0.1340000000E+08     0.1000000000E+03
         0.1350000000E+08     0.1000000000E+03
         0.1360000000E+08     0.1000000000E+03
         0.1370000000E+08     0.1000000000E+03
         0.1370000000E+08     0.1000000000E+03
         0.1380000000E+08     0.1000000000E+03
         0.1390000000E+08     0.1000000000E+03
         0.1400000000E+08     0.1000000000E+03
         0.1410000000E+08     0.1000000000E+03
         0.1420000000E+08     0.1000000000E+03
         0.1430000000E+08     0.1000000000E+03
         0.1430000000E+08     0.1000000000E+03
         0.1440000000E+08     0.1000000000E+03
         0.1450000000E+08     0.1000000000E+03
         0.1460000000E+08     0.1000000000E+03
         0.1470000000E+08     0.1000000000E+03
         0.1480000000E+08     0.1000000000E+03
         0.1490000000E+08     0.1000000000E+03
         0.1490000000E+08     0.1000000000E+03
         0.1500000000E+08     0.1000000000E+03
         0.1510000000E+08     0.1000000000E+03
         0.1520000000E+08     0.1000000000E+03
         0.1530000000E+08     0.1000000000E+03
         0.1540000000E+08     0.1000000000E+03
         0.1550000000E+08     0.1000000000E+03
         0.1560000000E+08     0.1000000000E+03
         0.1560000000E+08     0.1000000000E+03
         0.1570000000E+08     0.1000000000E+03
         0.1580000000E+08     0.1000000000E+03
         0.1590000000E+08     0.1000000000E+03
         0.1600000000E+08     0.1000000000E+03
         0.1610000000E+08     0.1000000000E+03
         0.1620000000E+08     0.1000000000E+03
         0.1620000000E+08     0.1000000000E+03
         0.1630000000E+08     0.1000000000E+03
         0.1640000000E+08     0.1000000000E+03
         0.1650000000E+08     0.1000000000E+03
         0.1660000000E+08     0.1000000000E+03
         0.1670000000E+08     0.1000000000E+03
         0.1680000000E+08     0.1000000000E+03
         0.1680000000E+08     0.1000000000E+03
         0.1690000000E+08     0.1000000000E+03
         0.1700000000E+08     0.1000000000E+03
         0.1710000000E+08     0.1000000000E+03
         0.1720000000E+08     0.1000000000E+03
         0.1730000000E+08     0.1000000000E+03
         0.1740000000E+08     0.1000000000E+03
         0.1750000000E+08     0.1000000000E+03
         0.1750000000E+08     0.1000000000E+03
         0.1760000000E+08     0.1000000000E+03
         0.1770000000E+08     0.1000000000E+03
         0.1780000000E+08     0.1000000000E+03
         0.1790000000E+08     0.1000000000E+03
         0.1800000000E+08     0.1000000000E+03
         0.1810000000E+08     0.1000000000E+03
         0.1810000000E+08     0.1000000000E+03
         0.1820000000E+08     0.1000000000E+03
         0.1830000000E+08     0.1000000000E+03
         0.1840000000E+08     0.1000000000E+03
         0.1850000000E+08     0.1000000000E+03
         0.1860000000E+08     0.1000000000E+03
         0.1870000000E+08     0.1000000000E+03
         0.1870000000E+08     0.1000000000E+03
         0.1880000000E+08     0.1000000000E+03
         0.1890000000E+08     0.1000000000E+03
         0.1900000000E+08     0.1000000000E+03
         0.1910000000E+08     0.1000000000E+03
         0.1920000000E+08     0.1000000000E+03
         0.1930000000E+08     0.1000000000E+03
         0.1940000000E+08     0.1000000000E+03
         0.1940000000E+08     0.1000000000E+03
         0.1950000000E+08     0.1000000000E+03
         0.1960000000E+08     0.1000000000E+03
         0.1970000000E+08     0.1000000000E+03
         0.1980000000E+08     0.1000000000E+03
         0.1990000000E+08     0.1000000000E+03
         0.2000000000E+08     0.1000000000E+03
         0.2000000000E+08     0.1000000000E+03
         0.2010000000E+08     0.1000000000E+03
         0.2020000000E+08     0.1000000000E+03
         0.2030000000E+08     0.1000000000E+03
         0.2040000000E+08     0.1000000000E+03
         0.2050000000E+08     0.1000000000E+03
         0.2060000000E+08     0.1000000000E+03
         0.2070000000E+08     0.1000000000E+03
         0.2070000000E+08     0.1000000000E+03
         0.2080000000E+08     0.1000000000E+03
         0.2090000000E+08     0.1000000000E+03
         0.2100000000E+08     0.1000000000E+03
         0.2110000000E+08     0.1000000000E+03
         0.2120000000E+08     0.1000000000E+03
         0.2130000000E+08     0.1000000000E+03
         0.2130000000E+08     0.1000000000E+03
         0.2140000000E+08     0.1000000000E+03
         0.2150000000E+08     0.1000000000E+03
         0.2160000000E+08     0.1000000000E+03
         0.2170000000E+08     0.1000000000E+03
         0.2180000000E+08     0.1000000000E+03
         0.2190000000E+08     0.1000000000E+03
         0.2190000000E+08     0.1000000000E+03
         0.2200000000E+08     0.1000000000E+03
         0.2210000000E+08     0.1000000000E+03
         0.2220000000E+08     0.1000000000E+03
         0.2230000000E+08     0.1000000000E+03
         0.2240000000E+08     0.1000000000E+03
         0.2250000000E+08     0.1000000000E+03
         0.2260000000E+08     0.1000000000E+03
         0.2260000000E+08     0.1000000000E+03
         0.2270000000E+08     0.1000000000E+03
         0.2280000000E+08     0.1000000000E+03
         0.2290000000E+08     0.1000000000E+03
         0.2300000000E+08     0.1000000000E+03
         0.2310000000E+08     0.1000000000E+03
         0.2320000000E+08     0.1000000000E+03
         0.2320000000E+08     0.1000000000E+03
         0.2330000000E+08     0.1000000000E+03
         0.2340000000E+08     0.1000000000E+03
         0.2350000000E+08     0.1000000000E+03
         0.2360000000E+08     0.1000000000E+03
         0.2370000000E+08     0.1000000000E+03
         0.2380000000E+08     0.1000000000E+03
         0.2380000000E+08     0.1000000000E+03
         0.2390000000E+08     0.1000000000E+03
         0.2400000000E+08     0.1000000000E+03
         0.2410000000E+08     0.1000000000E+03
         0.2420000000E+08     0.1000000000E+03
         0.2430000000E+08     0.1000000000E+03
         0.2440000000E+08     0.1000000000E+03
         0.2450000000E+08     0.1000000000E+03
         0.2450000000E+08     0.1000000000E+03
         0.2460000000E+08     0.1000000000E+03
         0.2470000000E+08     0.1000000000E+03
         0.2480000000E+08     0.1000000000E+03
         0.2490000000E+08     0.1000000000E+03
         0.2500000000E+08     0.1000000000E+03
         0.2510000000E+08     0.1000000000E+03
         0.2510000000E+08     0.1000000000E+03
         0.2520000000E+08     0.1000000000E+03
         0.2530000000E+08     0.1000000000E+03
         0.2540000000E+08     0.1000000000E+03
         0.2550000000E+08     0.1000000000E+03
         0.2560000000E+08     0.1000000000E+03
         0.2570000000E+08     0.1000000000E+03
         0.2570000000E+08     0.1000000000E+03
         0.2580000000E+08     0.1000000000E+03
         0.2590000000E+08     0.1000000000E+03
         0.2600000000E+08     0.1000000000E+03
         0.2610000000E+08     0.1000000000E+03
         0.2620000000E+08     0.1000000000E+03
         0.2630000000E+08     0.1000000000E+03
         0.2640000000E+08     0.1000000000E+03
         0.2640000000E+08     0.1000000000E+03
         0.2650000000E+08     0.1000000000E+03
         0.2660000000E+08     0.1000000000E+03
         0.2670000000E+08     0.1000000000E+03
         0.2680000000E+08     0.1000000000E+03
         0.2690000000E+08     0.1000000000E+03
         0.2700000000E+08     0.1000000000E+03
         0.2700000000E+08     0.1000000000E+03
         0.2710000000E+08     0.1000000000E+03
         0.2720000000E+08     0.1000000000E+03
         0.2730000000E+08     0.1000000000E+03
         0.2740000000E+08     0.1000000000E+03
         0.2750000000E+08     0.1000000000E+03
         0.2760000000E+08     0.1000000000E+03
         0.2760000000E+08     0.1000000000E+03
         0.2770000000E+08     0.1000000000E+03
         0.2780000000E+08     0.1000000000E+03
         0.2790000000E+08     0.1000000000E+03
         0.2800000000E+08     0.1000000000E+03
         0.2810000000E+08     0.1000000000E+03
         0.2820000000E+08     0.1000000000E+03
         0.2830000000E+08     0.1000000000E+03
         0.2830000000E+08     0.1000000000E+03
         0.2840000000E+08     0.1000000000E+03
         0.2850000000E+08     0.1000000000E+03
         0.2860000000E+08     0.1000000000E+03
         0.2870000000E+08     0.1000000000E+03
         0.2880000000E+08     0.1000000000E+03
         0.2890000000E+08     0.1000000000E+03
         0.2890000000E+08     0.1000000000E+03
         0.2900000000E+08     0.1000000000E+03
         0.2910000000E+08     0.1000000000E+03
         0.2920000000E+08     0.1000000000E+03
         0.2930000000E+08     0.1000000000E+03
         0.2940000000E+08     0.1000000000E+03
         0.2950000000E+08     0.1000000000E+03
         0.2950000000E+08     0.1000000000E+03
         0.2960000000E+08     0.1000000000E+03
         0.2970000000E+08     0.1000000000E+03
         0.2980000000E+08     0.1000000000E+03
         0.2990000000E+08     0.1000000000E+03
         0.3000000000E+08     0.1000000000E+03
         0.3010000000E+08     0.1000000000E+03
         0.3020000000E+08     0.1000000000E+03
         0.3020000000E+08     0.1000000000E+03
         0.3030000000E+08     0.1000000000E+03
         0.3040000000E+08     0.1000000000E+03
         0.3050000000E+08     0.1000000000E+03
         0.3060000000E+08     0.1000000000E+03
         0.3070000000E+08     0.1000000000E+03
         0.3080000000E+08     0.1000000000E+03
         0.3080000000E+08     0.1000000000E+03
         0.3090000000E+08     0.1000000000E+03
         0.3100000000E+08     0.1000000000E+03
         0.3110000000E+08     0.1000000000E+03
         0.3120000000E+08     0.1000000000E+03
         0.3130000000E+08     0.1000000000E+03
         0.3140000000E+08     0.1000000000E+03
         0.3150000000E+08     0.1000000000E+03
         0.3150000000E+08     0.1000000000E+03
         0.3160000000E+08     0.1000000000E+03
         0.3170000000E+08     0.1000000000E+03
         0.3180000000E+08     0.1000000000E+03
         0.3190000000E+08     0.1000000000E+03
         0.3200000000E+08     0.1000000000E+03
         0.3210000000E+08     0.1000000000E+03
         0.3210000000E+08     0.1000000000E+03
         0.3220000000E+08     0.1000000000E+03
         0.3230000000E+08     0.1000000000E+03
         0.3240000000E+08     0.1000000000E+03
         0.3250000000E+08     0.1000000000E+03
         0.3260000000E+08     0.1000000000E+03
         0.3270000000E+08     0.1000000000E+03
         0.3270000000E+08     0.1000000000E+03
         0.3280000000E+08     0.1000000000E+03
         0.3290000000E+08     0.1000000000E+03
         0.3300000000E+08     0.1000000000E+03
         0.3310000000E+08     0.1000000000E+03
         0.3320000000E+08     0.1000000000E+03
         0.3330000000E+08     0.1000000000E+03
         0.3340000000E+08     0.1000000000E+03
         0.3340000000E+08     0.1000000000E+03
         0.3350000000E+08     0.1000000000E+03
         0.3360000000E+08     0.1000000000E+03
         0.3370000000E+08     0.1000000000E+03
         0.3380000000E+08     0.1000000000E+03
         0.3390000000E+08     0.1000000000E+03
         0.3400000000E+08     0.1000000000E+03
         0.3400000000E+08     0.1000000000E+03
         0.3410000000E+08     0.1000000000E+03
         0.3420000000E+08     0.1000000000E+03
         0.3430000000E+08     0.1000000000E+03
         0.3440000000E+08     0.1000000000E+03
         0.3450000000E+08     0.1000000000E+03
         0.3460000000E+08     0.1000000000E+03
         0.3460000000E+08     0.1000000000E+03
         0.3470000000E+08     0.1000000000E+03
         0.3480000000E+08     0.1000000000E+03
         0.3490000000E+08     0.1000000000E+03
         0.3500000000E+08     0.1000000000E+03
         0.3510000000E+08     0.1000000000E+03
         0.3520000000E+08     0.1000000000E+03
         0.3530000000E+08     0.1000000000E+03
         0.3530000000E+08     0.1000000000E+03
         0.3540000000E+08     0.1000000000E+03
         0.3550000000E+08     0.1000000000E+03
         0.3560000000E+08     0.1000000000E+03
         0.3570000000E+08     0.1000000000E+03
         0.3580000000E+08     0.1000000000E+03
         0.3590000000E+08     0.1000000000E+03
         0.3590000000E+08     0.1000000000E+03
         0.3600000000E+08     0.1000000000E+03
         0.3610000000E+08     0.1000000000E+03
         0.3620000000E+08     0.1000000000E+03
         0.3630000000E+08     0.1000000000E+03
         0.3640000000E+08     0.1000000000E+03
         0.3650000000E+08     0.1000000000E+03
         0.3650000000E+08     0.1000000000E+03
         0.3660000000E+08     0.1000000000E+03
         0.3670000000E+08     0.1000000000E+03
         0.3680000000E+08     0.1000000000E+03
         0.3690000000E+08     0.1000000000E+03
         0.3700000000E+08     0.1000000000E+03
         0.3710000000E+08     0.1000000000E+03
         0.3720000000E+08     0.1000000000E+03
         0.3720000000E+08     0.1000000000E+03
         0.3730000000E+08     0.1000000000E+03
         0.3740000000E+08     0.1000000000E+03
         0.3750000000E+08     0.1000000000E+03
         0.3760000000E+08     0.1000000000E+03
         0.3770000000E+08     0.1000000000E+03
         0.3780000000E+08     0.1000000000E+03
         0.3780000000E+08     0.1000000000E+03
         0.3790000000E+08     0.1000000000E+03
         0.3800000000E+08     0.1000000000E+03
         0.3810000000E+08     0.1000000000E+03
         0.3820000000E+08     0.1000000000E+03
         0.3830000000E+08     0.1000000000E+03
         0.3840000000E+08     0.1000000000E+03
         0.3840000000E+08     0.1000000000E+03
         0.3850000000E+08     0.1000000000E+03
         0.3860000000E+08     0.1000000000E+03
         0.3870000000E+08     0.1000000000E+03
         0.3880000000E+08     0.1000000000E+03
         0.3890000000E+08     0.1000000000E+03
         0.3900000000E+08     0.1000000000E+03
         0.3910000000E+08     0.1000000000E+03
         0.3910000000E+08     0.1000000000E+03
         0.3920000000E+08     0.1000000000E+03
         0.3930000000E+08     0.1000000000E+03
         0.3940000000E+08     0.1000000000E+03
         0.3950000000E+08     0.1000000000E+03
         0.3960000000E+08     0.1000000000E+03
         0.3970000000E+08     0.1000000000E+03
         0.3970000000E+08     0.1000000000E+03
         0.3980000000E+08     0.1000000000E+03
         0.3990000000E+08     0.1000000000E+03
         0.4000000000E+08     0.1000000000E+03
         0.4010000000E+08     0.1000000000E+03
         0.4020000000E+08     0.1000000000E+03
         0.4030000000E+08     0.1000000000E+03
         0.4030000000E+08     0.1000000000E+03
         0.4040000000E+08     0.1000000000E+03
         0.4050000000E+08     0.1000000000E+03
         0.4060000000E+08     0.1000000000E+03
         0.4070000000E+08     0.1000000000E+03
         0.4080000000E+08     0.1000000000E+03
         0.4090000000E+08     0.1000000000E+03
         0.4100000000E+08     0.1000000000E+03
         0.4100000000E+08     0.1000000000E+03
         0.4110000000E+08     0.1000000000E+03
         0.4120000000E+08     0.1000000000E+03
         0.4130000000E+08     0.1000000000E+03
         0.4140000000E+08     0.1000000000E+03
         0.4150000000E+08     0.1000000000E+03
         0.4160000000E+08     0.1000000000E+03
         0.4160000000E+08     0.1000000000E+03
         0.4170000000E+08     0.1000000000E+03
         0.4180000000E+08     0.1000000000E+03
         0.4190000000E+08     0.1000000000E+03
         0.4200000000E+08     0.1000000000E+03
         0.4210000000E+08     0.1000000000E+03
         0.4220000000E+08     0.1000000000E+03
         0.4230000000E+08     0.1000000000E+03
         0.4230000000E+08     0.1000000000E+03
         0.4240000000E+08     0.1000000000E+03
         0.4250000000E+08     0.1000000000E+03
         0.4260000000E+08     0.1000000000E+03
         0.4270000000E+08     0.1000000000E+03
         0.4280000000E+08     0.1000000000E+03
         0.4290000000E+08     0.1000000000E+03
         0.4290000000E+08     0.1000000000E+03
         0.4300000000E+08     0.1000000000E+03
         0.4310000000E+08     0.1000000000E+03
         0.4320000000E+08     0.1000000000E+03
         0.4330000000E+08     0.1000000000E+03
         0.4340000000E+08     0.1000000000E+03
         0.4350000000E+08     0.1000000000E+03
         0.4350000000E+08     0.1000000000E+03
         0.4360000000E+08     0.1000000000E+03
         0.4370000000E+08     0.1000000000E+03
         0.4380000000E+08     0.1000000000E+03
         0.4390000000E+08     0.1000000000E+03
         0.4400000000E+08     0.1000000000E+03
         0.4410000000E+08     0.1000000000E+03
         0.4420000000E+08     0.1000000000E+03
         0.4420000000E+08     0.1000000000E+03
         0.4430000000E+08     0.1000000000E+03
         0.4440000000E+08     0.1000000000E+03
         0.4450000000E+08     0.1000000000E+03
         0.4460000000E+08     0.1000000000E+03
         0.4470000000E+08     0.1000000000E+03
         0.4480000000E+08     0.1000000000E+03
         0.4480000000E+08     0.1000000000E+03
         0.4490000000E+08     0.1000000000E+03
         0.4500000000E+08     0.1000000000E+03
         0.4510000000E+08     0.1000000000E+03
         0.4520000000E+08     0.1000000000E+03
         0.4530000000E+08     0.1000000000E+03
         0.4540000000E+08     0.1000000000E+03
         0.4540000000E+08     0.1000000000E+03
         0.4550000000E+08     0.1000000000E+03
         0.4560000000E+08     0.1000000000E+03
         0.4570000000E+08     0.1000000000E+03
         0.4580000000E+08     0.1000000000E+03
         0.4590000000E+08     0.1000000000E+03
         0.4600000000E+08     0.1000000000E+03
         0.4610000000E+08     0.1000000000E+03
         0.4610000000E+08     0.1000000000E+03
         0.4620000000E+08     0.1000000000E+03
         0.4630000000E+08     0.1000000000E+03
         0.4640000000E+08     0.1000000000E+03
         0.4650000000E+08     0.1000000000E+03
         0.4660000000E+08     0.1000000000E+03
         0.4670000000E+08     0.1000000000E+03
         0.4670000000E+08     0.1000000000E+03
         0.4680000000E+08     0.1000000000E+03
         0.4690000000E+08     0.1000000000E+03
         0.4700000000E+08     0.1000000000E+03
         0.4710000000E+08     0.1000000000E+03
         0.4720000000E+08     0.1000000000E+03
         0.4730000000E+08     0.1000000000E+03
         0.4730000000E+08     0.1000000000E+03
         0.4740000000E+08     0.1000000000E+03
         0.4750000000E+08     0.1000000000E+03
         0.4760000000E+08     0.1000000000E+03
         0.4770000000E+08     0.1000000000E+03
         0.4780000000E+08     0.1000000000E+03
         0.4790000000E+08     0.1000000000E+03
         0.4800000000E+08     0.1000000000E+03
         0.4800000000E+08     0.1000000000E+03
         0.4810000000E+08     0.1000000000E+03
         0.4820000000E+08     0.1000000000E+03
         0.4830000000E+08     0.1000000000E+03
         0.4840000000E+08     0.1000000000E+03
         0.4850000000E+08     0.1000000000E+03
         0.4860000000E+08     0.1000000000E+03
         0.4860000000E+08     0.1000000000E+03
         0.4870000000E+08     0.1000000000E+03
         0.4880000000E+08     0.1000000000E+03
         0.4890000000E+08     0.1000000000E+03
         0.4900000000E+08     0.1000000000E+03
         0.4910000000E+08     0.1000000000E+03
         0.4920000000E+08     0.1000000000E+03
         0.4920000000E+08     0.1000000000E+03
         0.4930000000E+08     0.1000000000E+03
         0.4940000000E+08     0.1000000000E+03
         0.4950000000E+08     0.1000000000E+03
         0.4960000000E+08     0.1000000000E+03
         0.4970000000E+08     0.1000000000E+03
         0.4980000000E+08     0.1000000000E+03
         0.4990000000E+08     0.1000000000E+03
         0.4990000000E+08     0.1000000000E+03
         0.5000000000E+08     0.1000000000E+03
         0.5010000000E+08     0.1000000000E+03
         0.5020000000E+08     0.1000000000E+03
         0.5030000000E+08     0.1000000000E+03
         0.5040000000E+08     0.1000000000E+03
         0.5050000000E+08     0.1000000000E+03
         0.5050000000E+08     0.1000000000E+03
         0.5060000000E+08     0.1000000000E+03
         0.5070000000E+08     0.1000000000E+03
         0.5080000000E+08     0.1000000000E+03
         0.5090000000E+08     0.1000000000E+03
         0.5100000000E+08     0.1000000000E+03
         0.5110000000E+08     0.1000000000E+03
         0.5110000000E+08     0.1000000000E+03
         0.5120000000E+08     0.1000000000E+03
         0.5130000000E+08     0.1000000000E+03
         0.5140000000E+08     0.1000000000E+03
         0.5150000000E+08     0.1000000000E+03
         0.5160000000E+08     0.1000000000E+03
         0.5170000000E+08     0.1000000000E+03
         0.5180000000E+08     0.1000000000E+03
         0.5180000000E+08     0.1000000000E+03
         0.5190000000E+08     0.1000000000E+03
         0.5200000000E+08     0.1000000000E+03
         0.5210000000E+08     0.1000000000E+03
         0.5220000000E+08     0.1000000000E+03
         0.5230000000E+08     0.1000000000E+03
         0.5240000000E+08     0.1000000000E+03
         0.5240000000E+08     0.1000000000E+03
         0.5250000000E+08     0.1000000000E+03
         0.5260000000E+08     0.1000000000E+03
         0.5270000000E+08     0.1000000000E+03
         0.5280000000E+08     0.1000000000E+03
         0.5290000000E+08     0.1000000000E+03
         0.5300000000E+08     0.1000000000E+03
         0.5310000000E+08     0.1000000000E+03
         0.5310000000E+08     0.1000000000E+03
         0.5320000000E+08     0.1000000000E+03
         0.5330000000E+08     0.1000000000E+03
         0.5340000000E+08     0.1000000000E+03
         0.5350000000E+08     0.1000000000E+03
         0.5360000000E+08     0.1000000000E+03
         0.5370000000E+08     0.1000000000E+03
         0.5370000000E+08     0.1000000000E+03
         0.5380000000E+08     0.1000000000E+03
         0.5390000000E+08     0.1000000000E+03
         0.5400000000E+08     0.1000000000E+03
         0.5410000000E+08     0.1000000000E+03
         0.5420000000E+08     0.1000000000E+03
         0.5430000000E+08     0.1000000000E+03
         0.5430000000E+08     0.1000000000E+03
         0.5440000000E+08     0.1000000000E+03
         0.5450000000E+08     0.1000000000E+03
         0.5460000000E+08     0.1000000000E+03
         0.5470000000E+08     0.1000000000E+03
         0.5480000000E+08     0.1000000000E+03
         0.5490000000E+08     0.1000000000E+03
         0.5500000000E+08     0.1000000000E+03
         0.5500000000E+08     0.1000000000E+03
         0.5510000000E+08     0.1000000000E+03
         0.5520000000E+08     0.1000000000E+03
         0.5530000000E+08     0.1000000000E+03
         0.5540000000E+08     0.1000000000E+03
         0.5550000000E+08     0.1000000000E+03
         0.5560000000E+08     0.1000000000E+03
         0.5560000000E+08     0.1000000000E+03
         0.5570000000E+08     0.1000000000E+03
         0.5580000000E+08     0.1000000000E+03
         0.5590000000E+08     0.1000000000E+03
         0.5600000000E+08     0.1000000000E+03
         0.5610000000E+08     0.1000000000E+03
         0.5620000000E+08     0.1000000000E+03
         0.5620000000E+08     0.1000000000E+03
         0.5630000000E+08     0.1000000000E+03
         0.5640000000E+08     0.1000000000E+03
         0.5650000000E+08     0.1000000000E+03
         0.5660000000E+08     0.1000000000E+03
         0.5670000000E+08     0.1000000000E+03
         0.5680000000E+08     0.1000000000E+03
         0.5690000000E+08     0.1000000000E+03
         0.5690000000E+08     0.1000000000E+03
         0.5700000000E+08     0.1000000000E+03
         0.5710000000E+08     0.1000000000E+03
         0.5720000000E+08     0.1000000000E+03
         0.5730000000E+08     0.1000000000E+03
         0.5740000000E+08     0.1000000000E+03
         0.5750000000E+08     0.1000000000E+03
         0.5750000000E+08     0.1000000000E+03
         0.5760000000E+08     0.1000000000E+03
         0.5770000000E+08     0.1000000000E+03
         0.5780000000E+08     0.1000000000E+03
         0.5790000000E+08     0.1000000000E+03
         0.5800000000E+08     0.1000000000E+03
         0.5810000000E+08     0.1000000000E+03
         0.5810000000E+08     0.1000000000E+03
         0.5820000000E+08     0.1000000000E+03
         0.5830000000E+08     0.1000000000E+03
         0.5840000000E+08     0.1000000000E+03
         0.5850000000E+08     0.1000000000E+03
         0.5860000000E+08     0.1000000000E+03
         0.5870000000E+08     0.1000000000E+03
         0.5880000000E+08     0.1000000000E+03
         0.5880000000E+08     0.1000000000E+03
         0.5890000000E+08     0.1000000000E+03
         0.5900000000E+08     0.1000000000E+03
         0.5910000000E+08     0.1000000000E+03
         0.5920000000E+08     0.1000000000E+03
         0.5930000000E+08     0.1000000000E+03
         0.5940000000E+08     0.1000000000E+03
         0.5940000000E+08     0.1000000000E+03
         0.5950000000E+08     0.1000000000E+03
         0.5960000000E+08     0.1000000000E+03
         0.5970000000E+08     0.1000000000E+03
         0.5980000000E+08     0.1000000000E+03
         0.5990000000E+08     0.1000000000E+03
         0.6000000000E+08     0.1000000000E+03
         0.6000000000E+08     0.1000000000E+03
         0.6010000000E+08     0.1000000000E+03
         0.6020000000E+08     0.1000000000E+03
         0.6030000000E+08     0.1000000000E+03
         0.6040000000E+08     0.1000000000E+03
         0.6050000000E+08     0.1000000000E+03
         0.6060000000E+08     0.1000000000E+03
         0.6070000000E+08     0.1000000000E+03
         0.6070000000E+08     0.1000000000E+03
         0.6080000000E+08     0.1000000000E+03
         0.6090000000E+08     0.1000000000E+03
         0.6100000000E+08     0.1000000000E+03
         0.6110000000E+08     0.1000000000E+03
         0.6120000000E+08     0.1000000000E+03
         0.6130000000E+08     0.1000000000E+03
         0.6130000000E+08     0.1000000000E+03
         0.6140000000E+08     0.1000000000E+03
         0.6150000000E+08     0.1000000000E+03
         0.6160000000E+08     0.1000000000E+03
         0.6170000000E+08     0.1000000000E+03
         0.6180000000E+08     0.1000000000E+03
         0.6190000000E+08     0.1000000000E+03
         0.6190000000E+08     0.1000000000E+03
         0.6200000000E+08     0.1000000000E+03
         0.6210000000E+08     0.1000000000E+03
         0.6220000000E+08     0.1000000000E+03
         0.6230000000E+08     0.1000000000E+03
         0.6240000000E+08     0.1000000000E+03
         0.6250000000E+08     0.1000000000E+03
         0.6260000000E+08     0.1000000000E+03
         0.6260000000E+08     0.1000000000E+03
         0.6270000000E+08     0.1000000000E+03
         0.6280000000E+08     0.1000000000E+03
         0.6290000000E+08     0.1000000000E+03
         0.6300000000E+08     0.1000000000E+03
         0.6310000000E+08     0.1000000000E+03
         0.6320000000E+08     0.1000000000E+03
         0.6320000000E+08     0.1000000000E+03
         0.6330000000E+08     0.1000000000E+03
         0.6340000000E+08     0.1000000000E+03
         0.6350000000E+08     0.1000000000E+03
         0.6360000000E+08     0.1000000000E+03
         0.6370000000E+08     0.1000000000E+03
         0.6380000000E+08     0.1000000000E+03
         0.6390000000E+08     0.1000000000E+03
         0.6390000000E+08     0.1000000000E+03
         0.6400000000E+08     0.1000000000E+03
         0.6410000000E+08     0.1000000000E+03
         0.6420000000E+08     0.1000000000E+03
         0.6430000000E+08     0.1000000000E+03
         0.6440000000E+08     0.1000000000E+03
         0.6450000000E+08     0.1000000000E+03
         0.6450000000E+08     0.1000000000E+03
         0.6460000000E+08     0.1000000000E+03
         0.6470000000E+08     0.1000000000E+03
         0.6480000000E+08     0.1000000000E+03
         0.6490000000E+08     0.1000000000E+03
         0.6500000000E+08     0.1000000000E+03
         0.6510000000E+08     0.1000000000E+03
         0.6510000000E+08     0.1000000000E+03
         0.6520000000E+08     0.1000000000E+03
         0.6530000000E+08     0.1000000000E+03
         0.6540000000E+08     0.1000000000E+03
         0.6550000000E+08     0.1000000000E+03
         0.6560000000E+08     0.1000000000E+03
         0.6570000000E+08     0.1000000000E+03
         0.6580000000E+08     0.1000000000E+03
         0.6590000000E+08     0.1000000000E+03
         0.6600000000E+08     0.1000000000E+03
         0.6610000000E+08     0.1000000000E+03
         0.6610000000E+08     0.1000000000E+03
         0.6620000000E+08     0.1000000000E+03
         0.6630000000E+08     0.1000000000E+03
         0.6640000000E+08     0.1000000000E+03
         0.6650000000E+08     0.1000000000E+03
         0.6660000000E+08     0.1000000000E+03
         0.6670000000E+08     0.1000000000E+03
         0.6670000000E+08     0.1000000000E+03
         0.6680000000E+08     0.1000000000E+03
         0.6690000000E+08     0.1000000000E+03
         0.6700000000E+08     0.1000000000E+03
         0.6710000000E+08     0.1000000000E+03
         0.6720000000E+08     0.1000000000E+03
         0.6730000000E+08     0.1000000000E+03
         0.6730000000E+08     0.1000000000E+03
         0.6740000000E+08     0.1000000000E+03
         0.6750000000E+08     0.1000000000E+03
         0.6760000000E+08     0.1000000000E+03
         0.6770000000E+08     0.1000000000E+03
         0.6780000000E+08     0.1000000000E+03
         0.6790000000E+08     0.1000000000E+03
         0.6800000000E+08     0.1000000000E+03
         0.6810000000E+08     0.1000000000E+03
         0.6820000000E+08     0.1000000000E+03
         0.6830000000E+08     0.1000000000E+03
         0.6830000000E+08     0.1000000000E+03
         0.6840000000E+08     0.1000000000E+03
         0.6850000000E+08     0.1000000000E+03
         0.6860000000E+08     0.1000000000E+03
         0.6870000000E+08     0.1000000000E+03
         0.6880000000E+08     0.1000000000E+03
         0.6890000000E+08     0.1000000000E+03
         0.6890000000E+08     0.1000000000E+03
         0.6900000000E+08     0.1000000000E+03
         0.6910000000E+08     0.1000000000E+03
         0.6920000000E+08     0.1000000000E+03
         0.6930000000E+08     0.1000000000E+03
         0.6940000000E+08     0.1000000000E+03
         0.6950000000E+08     0.1000000000E+03
         0.6950000000E+08     0.1000000000E+03
         0.6960000000E+08     0.1000000000E+03
         0.6970000000E+08     0.1000000000E+03
         0.6980000000E+08     0.1000000000E+03
         0.6990000000E+08     0.1000000000E+03
         0.7000000000E+08     0.1000000000E+03
         0.7010000000E+08     0.1000000000E+03
         0.7020000000E+08     0.1000000000E+03
         0.7030000000E+08     0.1000000000E+03
         0.7040000000E+08     0.1000000000E+03
         0.7050000000E+08     0.1000000000E+03
         0.7050000000E+08     0.1000000000E+03
         0.7060000000E+08     0.1000000000E+03
         0.7070000000E+08     0.1000000000E+03
         0.7080000000E+08     0.1000000000E+03
         0.7090000000E+08     0.1000000000E+03
         0.7100000000E+08     0.1000000000E+03
         0.7110000000E+08     0.1000000000E+03
         0.7110000000E+08     0.1000000000E+03
         0.7120000000E+08     0.1000000000E+03
         0.7130000000E+08     0.1000000000E+03
         0.7140000000E+08     0.1000000000E+03
         0.7150000000E+08     0.1000000000E+03
         0.7160000000E+08     0.1000000000E+03
         0.7170000000E+08     0.1000000000E+03
         0.7170000000E+08     0.1000000000E+03
         0.7180000000E+08     0.1000000000E+03
         0.7190000000E+08     0.1000000000E+03
         0.7200000000E+08     0.1000000000E+03
         0.7210000000E+08     0.1000000000E+03
         0.7220000000E+08     0.1000000000E+03
         0.7230000000E+08     0.1000000000E+03
         0.7240000000E+08     0.1000000000E+03
         0.7250000000E+08     0.1000000000E+03
         0.7260000000E+08     0.1000000000E+03
         0.7270000000E+08     0.1000000000E+03
         0.7270000000E+08     0.1000000000E+03
         0.7280000000E+08     0.1000000000E+03
         0.7290000000E+08     0.1000000000E+03
         0.7300000000E+08     0.1000000000E+03
         0.7310000000E+08     0.1000000000E+03
         0.7320000000E+08     0.1000000000E+03
         0.7330000000E+08     0.1000000000E+03
         0.7330000000E+08     0.1000000000E+03
         0.7340000000E+08     0.1000000000E+03
         0.7350000000E+08     0.1000000000E+03
         0.7360000000E+08     0.1000000000E+03
         0.7370000000E+08     0.1000000000E+03
         0.7380000000E+08     0.1000000000E+03
         0.7390000000E+08     0.1000000000E+03
         0.7390000000E+08     0.1000000000E+03
         0.7400000000E+08     0.1000000000E+03
         0.7410000000E+08     0.1000000000E+03
         0.7420000000E+08     0.1000000000E+03
         0.7430000000E+08     0.1000000000E+03
         0.7440000000E+08     0.1000000000E+03
         0.7450000000E+08     0.1000000000E+03
         0.7460000000E+08     0.1000000000E+03
         0.7470000000E+08     0.1000000000E+03
         0.7480000000E+08     0.1000000000E+03
         0.7490000000E+08     0.1000000000E+03
         0.7490000000E+08     0.1000000000E+03
         0.7500000000E+08     0.1000000000E+03
         0.7510000000E+08     0.1000000000E+03
         0.7520000000E+08     0.1000000000E+03
         0.7530000000E+08     0.1000000000E+03
         0.7540000000E+08     0.1000000000E+03
         0.7550000000E+08     0.1000000000E+03
         0.7550000000E+08     0.1000000000E+03
         0.7560000000E+08     0.1000000000E+03
         0.7570000000E+08     0.1000000000E+03
         0.7580000000E+08     0.1000000000E+03
         0.7590000000E+08     0.1000000000E+03
         0.7600000000E+08     0.1000000000E+03
         0.7610000000E+08     0.1000000000E+03
         0.7610000000E+08     0.1000000000E+03
         0.7620000000E+08     0.1000000000E+03
         0.7630000000E+08     0.1000000000E+03
         0.7640000000E+08     0.1000000000E+03
         0.7650000000E+08     0.1000000000E+03
         0.7660000000E+08     0.1000000000E+03
         0.7670000000E+08     0.1000000000E+03
         0.7680000000E+08     0.1000000000E+03
         0.7690000000E+08     0.1000000000E+03
         0.7700000000E+08     0.1000000000E+03
         0.7710000000E+08     0.1000000000E+03
         0.7710000000E+08     0.1000000000E+03
         0.7720000000E+08     0.1000000000E+03
         0.7730000000E+08     0.1000000000E+03
         0.7740000000E+08     0.1000000000E+03
         0.7750000000E+08     0.1000000000E+03
         0.7760000000E+08     0.1000000000E+03
         0.7770000000E+08     0.1000000000E+03
         0.7770000000E+08     0.1000000000E+03
         0.7780000000E+08     0.1000000000E+03
         0.7790000000E+08     0.1000000000E+03
         0.7800000000E+08     0.1000000000E+03
         0.7810000000E+08     0.1000000000E+03
         0.7820000000E+08     0.1000000000E+03
         0.7830000000E+08     0.1000000000E+03
         0.7830000000E+08     0.1000000000E+03
         0.7840000000E+08     0.1000000000E+03
         0.7850000000E+08     0.1000000000E+03
         0.7860000000E+08     0.1000000000E+03
         0.7870000000E+08     0.1000000000E+03
         0.7880000000E+08     0.1000000000E+03
         0.7890000000E+08     0.1000000000E+03
         0.7900000000E+08     0.1000000000E+03
         0.7910000000E+08     0.1000000000E+03
         0.7920000000E+08     0.1000000000E+03
         0.7930000000E+08     0.1000000000E+03
         0.7930000000E+08     0.1000000000E+03
         0.7940000000E+08     0.1000000000E+03
         0.7950000000E+08     0.1000000000E+03
         0.7960000000E+08     0.1000000000E+03
         0.7970000000E+08     0.1000000000E+03
         0.7980000000E+08     0.1000000000E+03
         0.7990000000E+08     0.1000000000E+03
         0.7990000000E+08     0.1000000000E+03
         0.8000000000E+08     0.1000000000E+03
         0.8010000000E+08     0.1000000000E+03
         0.8020000000E+08     0.1000000000E+03
         0.8030000000E+08     0.1000000000E+03
         0.8040000000E+08     0.1000000000E+03
         0.8050000000E+08     0.1000000000E+03
         0.8050000000E+08     0.1000000000E+03
         0.8060000000E+08     0.1000000000E+03
         0.8070000000E+08     0.1000000000E+03
         0.8080000000E+08     0.1000000000E+03
         0.8090000000E+08     0.1000000000E+03
         0.8100000000E+08     0.1000000000E+03
         0.8110000000E+08     0.1000000000E+03
         0.8120000000E+08     0.1000000000E+03
         0.8130000000E+08     0.1000000000E+03
         0.8140000000E+08     0.1000000000E+03
         0.8150000000E+08     0.1000000000E+03
         0.8150000000E+08     0.1000000000E+03
         0.8160000000E+08     0.1000000000E+03
         0.8170000000E+08     0.1000000000E+03
         0.8180000000E+08     0.1000000000E+03
         0.8190000000E+08     0.1000000000E+03
         0.8200000000E+08     0.1000000000E+03
         0.8210000000E+08     0.1000000000E+03
         0.8210000000E+08     0.1000000000E+03
         0.8220000000E+08     0.1000000000E+03
         0.8230000000E+08     0.1000000000E+03
         0.8240000000E+08     0.1000000000E+03
         0.8250000000E+08     0.1000000000E+03
         0.8260000000E+08     0.1000000000E+03
         0.8270000000E+08     0.1000000000E+03
         0.8270000000E+08     0.1000000000E+03
         0.8280000000E+08     0.1000000000E+03
         0.8290000000E+08     0.1000000000E+03
         0.8300000000E+08     0.1000000000E+03
         0.8310000000E+08     0.1000000000E+03
         0.8320000000E+08     0.1000000000E+03
         0.8330000000E+08     0.1000000000E+03
         0.8340000000E+08     0.1000000000E+03
         0.8350000000E+08     0.1000000000E+03
         0.8360000000E+08     0.1000000000E+03
         0.8370000000E+08     0.1000000000E+03
         0.8370000000E+08     0.1000000000E+03
         0.8380000000E+08     0.1000000000E+03
         0.8390000000E+08     0.1000000000E+03
         0.8400000000E+08     0.1000000000E+03
         0.8410000000E+08     0.1000000000E+03
         0.8420000000E+08     0.1000000000E+03
         0.8430000000E+08     0.1000000000E+03
         0.8430000000E+08     0.1000000000E+03
         0.8440000000E+08     0.1000000000E+03
         0.8450000000E+08     0.1000000000E+03
         0.8460000000E+08     0.1000000000E+03
         0.8470000000E+08     0.1000000000E+03
         0.8480000000E+08     0.1000000000E+03
         0.8490000000E+08     0.1000000000E+03
         0.8490000000E+08     0.1000000000E+03
         0.8500000000E+08     0.1000000000E+03
         0.8510000000E+08     0.1000000000E+03
         0.8520000000E+08     0.1000000000E+03
         0.8530000000E+08     0.1000000000E+03
         0.8540000000E+08     0.1000000000E+03
         0.8550000000E+08     0.1000000000E+03
         0.8560000000E+08     0.1000000000E+03
         0.8570000000E+08     0.1000000000E+03
         0.8580000000E+08     0.1000000000E+03
         0.8590000000E+08     0.1000000000E+03
         0.8590000000E+08     0.1000000000E+03
         0.8600000000E+08     0.1000000000E+03
         0.8610000000E+08     0.1000000000E+03
         0.8620000000E+08     0.1000000000E+03
         0.8630000000E+08     0.1000000000E+03
         0.8640000000E+08     0.1000000000E+03
         0.8650000000E+08     0.1000000000E+03
         0.8650000000E+08     0.1000000000E+03
         0.8660000000E+08     0.1000000000E+03
         0.8670000000E+08     0.1000000000E+03
         0.8680000000E+08     0.1000000000E+03
         0.8690000000E+08     0.1000000000E+03
         0.8700000000E+08     0.1000000000E+03
         0.8710000000E+08     0.1000000000E+03
         0.8710000000E+08     0.1000000000E+03
         0.8720000000E+08     0.1000000000E+03
         0.8730000000E+08     0.1000000000E+03
         0.8740000000E+08     0.1000000000E+03
         0.8750000000E+08     0.1000000000E+03
         0.8760000000E+08     0.1000000000E+03
         0.8770000000E+08     0.1000000000E+03
         0.8780000000E+08     0.1000000000E+03
         0.8790000000E+08     0.1000000000E+03
         0.8800000000E+08     0.1000000000E+03
         0.8810000000E+08     0.1000000000E+03
         0.8810000000E+08     0.1000000000E+03
         0.8820000000E+08     0.1000000000E+03
         0.8830000000E+08     0.1000000000E+03
         0.8840000000E+08     0.1000000000E+03
         0.8850000000E+08     0.1000000000E+03
         0.8860000000E+08     0.1000000000E+03
         0.8870000000E+08     0.1000000000E+03
         0.8870000000E+08     0.1000000000E+03
         0.8880000000E+08     0.1000000000E+03
         0.8890000000E+08     0.1000000000E+03
         0.8900000000E+08     0.1000000000E+03
         0.8910000000E+08     0.1000000000E+03
         0.8920000000E+08     0.1000000000E+03
         0.8930000000E+08     0.1000000000E+03
         0.8930000000E+08     0.1000000000E+03
         0.8940000000E+08     0.1000000000E+03
         0.8950000000E+08     0.1000000000E+03
         0.8960000000E+08     0.1000000000E+03
         0.8970000000E+08     0.1000000000E+03
         0.8980000000E+08     0.1000000000E+03
         0.8990000000E+08     0.1000000000E+03
         0.9000000000E+08     0.1000000000E+03
         0.9010000000E+08     0.1000000000E+03
         0.9020000000E+08     0.1000000000E+03
         0.9030000000E+08     0.1000000000E+03
         0.9030000000E+08     0.1000000000E+03
         0.9040000000E+08     0.1000000000E+03
         0.9050000000E+08     0.1000000000E+03
         0.9060000000E+08     0.1000000000E+03
         0.9070000000E+08     0.1000000000E+03
         0.9080000000E+08     0.1000000000E+03
         0.9090000000E+08     0.1000000000E+03
         0.9090000000E+08     0.1000000000E+03
         0.9100000000E+08     0.1000000000E+03
         0.9110000000E+08     0.1000000000E+03
         0.9120000000E+08     0.1000000000E+03
         0.9130000000E+08     0.1000000000E+03
         0.9140000000E+08     0.1000000000E+03
         0.9150000000E+08     0.1000000000E+03
         0.9150000000E+08     0.1000000000E+03
         0.9160000000E+08     0.1000000000E+03
         0.9170000000E+08     0.1000000000E+03
         0.9180000000E+08     0.1000000000E+03
         0.9190000000E+08     0.1000000000E+03
         0.9200000000E+08     0.1000000000E+03
         0.9210000000E+08     0.1000000000E+03
         0.9220000000E+08     0.1000000000E+03
         0.9230000000E+08     0.1000000000E+03
         0.9240000000E+08     0.1000000000E+03
         0.9250000000E+08     0.1000000000E+03
         0.9250000000E+08     0.1000000000E+03
         0.9260000000E+08     0.1000000000E+03
         0.9270000000E+08     0.1000000000E+03
         0.9280000000E+08     0.1000000000E+03
         0.9290000000E+08     0.1000000000E+03
         0.9300000000E+08     0.1000000000E+03
         0.9310000000E+08     0.1000000000E+03
         0.9310000000E+08     0.1000000000E+03
         0.9320000000E+08     0.1000000000E+03
         0.9330000000E+08     0.1000000000E+03
         0.9340000000E+08     0.1000000000E+03
         0.9350000000E+08     0.1000000000E+03
         0.9360000000E+08     0.1000000000E+03
         0.9370000000E+08     0.1000000000E+03
         0.9370000000E+08     0.1000000000E+03
         0.9380000000E+08     0.1000000000E+03
         0.9390000000E+08     0.1000000000E+03
         0.9400000000E+08     0.1000000000E+03
         0.9410000000E+08     0.1000000000E+03
         0.9420000000E+08     0.1000000000E+03
         0.9430000000E+08     0.1000000000E+03
         0.9440000000E+08     0.1000000000E+03
         0.9450000000E+08     0.1000000000E+03
         0.9460000000E+08     0.1000000000E+03
         0.9470000000E+08     0.1000000000E+03
         0.9470000000E+08     0.1000000000E+03
         0.9480000000E+08     0.1000000000E+03
         0.9490000000E+08     0.1000000000E+03
         0.9500000000E+08     0.1000000000E+03
         0.9510000000E+08     0.1000000000E+03
         0.9520000000E+08     0.1000000000E+03
         0.9530000000E+08     0.1000000000E+03
         0.9530000000E+08     0.1000000000E+03
         0.9540000000E+08     0.1000000000E+03
         0.9550000000E+08     0.1000000000E+03
         0.9560000000E+08     0.1000000000E+03
         0.9570000000E+08     0.1000000000E+03
         0.9580000000E+08     0.1000000000E+03
         0.9590000000E+08     0.1000000000E+03
         0.9590000000E+08     0.1000000000E+03
         0.9600000000E+08     0.1000000000E+03
         0.9610000000E+08     0.1000000000E+03
         0.9620000000E+08     0.1000000000E+03
         0.9630000000E+08     0.1000000000E+03
         0.9640000000E+08     0.1000000000E+03
         0.9650000000E+08     0.1000000000E+03
         0.9660000000E+08     0.1000000000E+03
         0.9670000000E+08     0.1000000000E+03
         0.9680000000E+08     0.1000000000E+03
         0.9690000000E+08     0.1000000000E+03
         0.9690000000E+08     0.1000000000E+03
         0.9700000000E+08     0.1000000000E+03
         0.9710000000E+08     0.1000000000E+03
         0.9720000000E+08     0.1000000000E+03
         0.9730000000E+08     0.1000000000E+03
         0.9740000000E+08     0.1000000000E+03
         0.9750000000E+08     0.1000000000E+03
         0.9750000000E+08     0.1000000000E+03
         0.9760000000E+08     0.1000000000E+03
         0.9770000000E+08     0.1000000000E+03
         0.9780000000E+08     0.1000000000E+03
         0.9790000000E+08     0.1000000000E+03
         0.9800000000E+08     0.1000000000E+03
         0.9810000000E+08     0.1000000000E+03
         0.9810000000E+08     0.1000000000E+03
         0.9820000000E+08     0.1000000000E+03
         0.9830000000E+08     0.1000000000E+03
         0.9840000000E+08     0.1000000000E+03
         0.9850000000E+08     0.1000000000E+03
         0.9860000000E+08     0.1000000000E+03
         0.9870000000E+08     0.1000000000E+03
         0.9880000000E+08     0.1000000000E+03
         0.9890000000E+08     0.1000000000E+03
         0.9900000000E+08     0.1000000000E+03
         0.9910000000E+08     0.1000000000E+03
         0.9910000000E+08     0.1000000000E+03
         0.9920000000E+08     0.1000000000E+03
         0.9930000000E+08     0.1000000000E+03
         0.9940000000E+08     0.1000000000E+03
         0.9950000000E+08     0.1000000000E+03
         0.9960000000E+08     0.1000000000E+03
         0.9970000000E+08     0.1000000000E+03
         0.9970000000E+08     0.1000000000E+03
         0.9980000000E+08     0.1000000000E+03
         0.9990000000E+08     0.1000000000E+03
         0.1000000000E+09     0.1000000000E+03
         0.1001000000E+09     0.1000000000E+03
         0.1002000000E+09     0.1000000000E+03
         0.1003000000E+09     0.1000000000E+03
         0.1003000000E+09     0.1000000000E+03
         0.1004000000E+09     0.1000000000E+03
         0.1005000000E+09     0.1000000000E+03
         0.1006000000E+09     0.1000000000E+03
         0.1007000000E+09     0.1000000000E+03
         0.1008000000E+09     0.1000000000E+03
         0.1009000000E+09     0.1000000000E+03
         0.1010000000E+09     0.1000000000E+03
         0.1011000000E+09     0.1000000000E+03
         0.1012000000E+09     0.1000000000E+03
         0.1013000000E+09     0.1000000000E+03
         0.1013000000E+09     0.1000000000E+03
         0.1014000000E+09     0.1000000000E+03
         0.1015000000E+09     0.1000000000E+03
         0.1016000000E+09     0.1000000000E+03
         0.1017000000E+09     0.1000000000E+03
         0.1018000000E+09     0.1000000000E+03
         0.1019000000E+09     0.1000000000E+03
         0.1019000000E+09     0.1000000000E+03
         0.1020000000E+09     0.1000000000E+03
         0.1021000000E+09     0.1000000000E+03
         0.1022000000E+09     0.1000000000E+03
         0.1023000000E+09     0.1000000000E+03
         0.1024000000E+09     0.1000000000E+03
         0.1025000000E+09     0.1000000000E+03
         0.1025000000E+09     0.1000000000E+03
         0.1026000000E+09     0.1000000000E+03
         0.1027000000E+09     0.1000000000E+03
         0.1028000000E+09     0.1000000000E+03
         0.1029000000E+09     0.1000000000E+03
         0.1030000000E+09     0.1000000000E+03
         0.1031000000E+09     0.1000000000E+03
         0.1032000000E+09     0.1000000000E+03
         0.1033000000E+09     0.1000000000E+03
         0.1034000000E+09     0.1000000000E+03
         0.1035000000E+09     0.1000000000E+03
         0.1035000000E+09     0.1000000000E+03
         0.1036000000E+09     0.1000000000E+03
         0.1037000000E+09     0.1000000000E+03
         0.1038000000E+09     0.1000000000E+03
         0.1039000000E+09     0.1000000000E+03
         0.1040000000E+09     0.1000000000E+03
         0.1041000000E+09     0.1000000000E+03
         0.1041000000E+09     0.1000000000E+03
         0.1042000000E+09     0.1000000000E+03
         0.1043000000E+09     0.1000000000E+03
         0.1044000000E+09     0.1000000000E+03
         0.1045000000E+09     0.1000000000E+03
         0.1046000000E+09     0.1000000000E+03
         0.1047000000E+09     0.1000000000E+03
         0.1047000000E+09     0.1000000000E+03
         0.1048000000E+09     0.1000000000E+03
         0.1049000000E+09     0.1000000000E+03
         0.1050000000E+09     0.1000000000E+03
         0.1051000000E+09     0.1000000000E+03
         0.1052000000E+09     0.1000000000E+03
         0.1053000000E+09     0.1000000000E+03
         0.1054000000E+09     0.1000000000E+03
         0.1055000000E+09     0.1000000000E+03
         0.1056000000E+09     0.1000000000E+03
         0.1057000000E+09     0.1000000000E+03
         0.1057000000E+09     0.1000000000E+03
         0.1058000000E+09     0.1000000000E+03
         0.1059000000E+09     0.1000000000E+03
         0.1060000000E+09     0.1000000000E+03
         0.1061000000E+09     0.1000000000E+03
         0.1062000000E+09     0.1000000000E+03
         0.1063000000E+09     0.1000000000E+03
         0.1063000000E+09     0.1000000000E+03
         0.1064000000E+09     0.1000000000E+03
         0.1065000000E+09     0.1000000000E+03
         0.1066000000E+09     0.1000000000E+03
         0.1067000000E+09     0.1000000000E+03
         0.1068000000E+09     0.1000000000E+03
         0.1069000000E+09     0.1000000000E+03
         0.1069000000E+09     0.1000000000E+03
         0.1070000000E+09     0.1000000000E+03
         0.1071000000E+09     0.1000000000E+03
         0.1072000000E+09     0.1000000000E+03
         0.1073000000E+09     0.1000000000E+03
         0.1074000000E+09     0.1000000000E+03
         0.1075000000E+09     0.1000000000E+03
         0.1076000000E+09     0.1000000000E+03
         0.1077000000E+09     0.1000000000E+03
         0.1078000000E+09     0.1000000000E+03
         0.1079000000E+09     0.1000000000E+03
         0.1079000000E+09     0.1000000000E+03
         0.1080000000E+09     0.1000000000E+03
         0.1081000000E+09     0.1000000000E+03
         0.1082000000E+09     0.1000000000E+03
         0.1083000000E+09     0.1000000000E+03
         0.1084000000E+09     0.1000000000E+03
         0.1085000000E+09     0.1000000000E+03
         0.1085000000E+09     0.1000000000E+03
         0.1086000000E+09     0.1000000000E+03
         0.1087000000E+09     0.1000000000E+03
         0.1088000000E+09     0.1000000000E+03
         0.1089000000E+09     0.1000000000E+03
         0.1090000000E+09     0.1000000000E+03
         0.1091000000E+09     0.1000000000E+03
         0.1091000000E+09     0.1000000000E+03
         0.1092000000E+09     0.1000000000E+03
         0.1093000000E+09     0.1000000000E+03
         0.1094000000E+09     0.1000000000E+03
         0.1095000000E+09     0.1000000000E+03
         0.1096000000E+09     0.1000000000E+03
         0.1097000000E+09     0.1000000000E+03
         0.1098000000E+09     0.1000000000E+03
         0.1099000000E+09     0.1000000000E+03
         0.1100000000E+09     0.1000000000E+03
         0.1101000000E+09     0.1000000000E+03
         0.1101000000E+09     0.1000000000E+03
         0.1102000000E+09     0.1000000000E+03
         0.1103000000E+09     0.1000000000E+03
         0.1104000000E+09     0.1000000000E+03
         0.1105000000E+09     0.1000000000E+03
         0.1106000000E+09     0.1000000000E+03
         0.1107000000E+09     0.1000000000E+03
         0.1107000000E+09     0.1000000000E+03
         0.1108000000E+09     0.1000000000E+03
         0.1109000000E+09     0.1000000000E+03
         0.1110000000E+09     0.1000000000E+03
         0.1111000000E+09     0.1000000000E+03
         0.1112000000E+09     0.1000000000E+03
         0.1113000000E+09     0.1000000000E+03
         0.1113000000E+09     0.1000000000E+03
         0.1114000000E+09     0.1000000000E+03
         0.1115000000E+09     0.1000000000E+03
         0.1116000000E+09     0.1000000000E+03
         0.1117000000E+09     0.1000000000E+03
         0.1118000000E+09     0.1000000000E+03
         0.1119000000E+09     0.1000000000E+03
         0.1120000000E+09     0.1000000000E+03
         0.1121000000E+09     0.1000000000E+03
         0.1122000000E+09     0.1000000000E+03
         0.1123000000E+09     0.1000000000E+03
         0.1123000000E+09     0.1000000000E+03
         0.1124000000E+09     0.1000000000E+03
         0.1125000000E+09     0.1000000000E+03
         0.1126000000E+09     0.1000000000E+03
         0.1127000000E+09     0.1000000000E+03
         0.1128000000E+09     0.1000000000E+03
         0.1129000000E+09     0.1000000000E+03
         0.1129000000E+09     0.1000000000E+03
         0.1130000000E+09     0.1000000000E+03
         0.1131000000E+09     0.1000000000E+03
         0.1132000000E+09     0.1000000000E+03
         0.1133000000E+09     0.1000000000E+03
         0.1134000000E+09     0.1000000000E+03
         0.1135000000E+09     0.1000000000E+03
         0.1135000000E+09     0.1000000000E+03
         0.1136000000E+09     0.1000000000E+03
         0.1137000000E+09     0.1000000000E+03
         0.1138000000E+09     0.1000000000E+03
         0.1139000000E+09     0.1000000000E+03
         0.1140000000E+09     0.1000000000E+03
         0.1141000000E+09     0.1000000000E+03
         0.1142000000E+09     0.1000000000E+03
         0.1143000000E+09     0.1000000000E+03
         0.1144000000E+09     0.1000000000E+03
         0.1145000000E+09     0.1000000000E+03
         0.1145000000E+09     0.1000000000E+03
         0.1146000000E+09     0.1000000000E+03
         0.1147000000E+09     0.1000000000E+03
         0.1148000000E+09     0.1000000000E+03
         0.1149000000E+09     0.1000000000E+03
         0.1150000000E+09     0.1000000000E+03
         0.1151000000E+09     0.1000000000E+03
         0.1151000000E+09     0.1000000000E+03
         0.1152000000E+09     0.1000000000E+03
         0.1153000000E+09     0.1000000000E+03
         0.1154000000E+09     0.1000000000E+03
         0.1155000000E+09     0.1000000000E+03
         0.1156000000E+09     0.1000000000E+03
         0.1157000000E+09     0.1000000000E+03
         0.1157000000E+09     0.1000000000E+03
         0.1158000000E+09     0.1000000000E+03
         0.1159000000E+09     0.1000000000E+03
         0.1160000000E+09     0.1000000000E+03
         0.1161000000E+09     0.1000000000E+03
         0.1162000000E+09     0.1000000000E+03
         0.1163000000E+09     0.1000000000E+03
         0.1164000000E+09     0.1000000000E+03
         0.1165000000E+09     0.1000000000E+03
         0.1166000000E+09     0.1000000000E+03
         0.1167000000E+09     0.1000000000E+03
         0.1167000000E+09     0.1000000000E+03
         0.1168000000E+09     0.1000000000E+03
         0.1169000000E+09     0.1000000000E+03
         0.1170000000E+09     0.1000000000E+03
         0.1171000000E+09     0.1000000000E+03
         0.1172000000E+09     0.1000000000E+03
         0.1173000000E+09     0.1000000000E+03
         0.1173000000E+09     0.1000000000E+03
         0.1174000000E+09     0.1000000000E+03
         0.1175000000E+09     0.1000000000E+03
         0.1176000000E+09     0.1000000000E+03
         0.1177000000E+09     0.1000000000E+03
         0.1178000000E+09     0.1000000000E+03
         0.1179000000E+09     0.1000000000E+03
         0.1179000000E+09     0.1000000000E+03
         0.1180000000E+09     0.1000000000E+03
         0.1181000000E+09     0.1000000000E+03
         0.1182000000E+09     0.1000000000E+03
         0.1183000000E+09     0.1000000000E+03
         0.1184000000E+09     0.1000000000E+03
         0.1185000000E+09     0.1000000000E+03
         0.1186000000E+09     0.1000000000E+03
         0.1187000000E+09     0.1000000000E+03
         0.1188000000E+09     0.1000000000E+03
         0.1189000000E+09     0.1000000000E+03
         0.1189000000E+09     0.1000000000E+03
         0.1190000000E+09     0.1000000000E+03
         0.1191000000E+09     0.1000000000E+03
         0.1192000000E+09     0.1000000000E+03
         0.1193000000E+09     0.1000000000E+03
         0.1194000000E+09     0.1000000000E+03
         0.1195000000E+09     0.1000000000E+03
         0.1195000000E+09     0.1000000000E+03
         0.1196000000E+09     0.1000000000E+03
         0.1197000000E+09     0.1000000000E+03
         0.1198000000E+09     0.1000000000E+03
         0.1199000000E+09     0.1000000000E+03
         0.1200000000E+09     0.1000000000E+03
         0.1201000000E+09     0.1000000000E+03
         0.1201000000E+09     0.1000000000E+03
         0.1202000000E+09     0.1000000000E+03
         0.1203000000E+09     0.1000000000E+03
         0.1204000000E+09     0.1000000000E+03
         0.1205000000E+09     0.1000000000E+03
         0.1206000000E+09     0.1000000000E+03
         0.1207000000E+09     0.1000000000E+03
         0.1208000000E+09     0.1000000000E+03
         0.1209000000E+09     0.1000000000E+03
         0.1210000000E+09     0.1000000000E+03
         0.1211000000E+09     0.1000000000E+03
         0.1211000000E+09     0.1000000000E+03
         0.1212000000E+09     0.1000000000E+03
         0.1213000000E+09     0.1000000000E+03
         0.1214000000E+09     0.1000000000E+03
         0.1215000000E+09     0.1000000000E+03
         0.1216000000E+09     0.1000000000E+03
         0.1217000000E+09     0.1000000000E+03
         0.1217000000E+09     0.1000000000E+03
         0.1218000000E+09     0.1000000000E+03
         0.1219000000E+09     0.1000000000E+03
         0.1220000000E+09     0.1000000000E+03
         0.1221000000E+09     0.1000000000E+03
         0.1222000000E+09     0.1000000000E+03
         0.1223000000E+09     0.1000000000E+03
         0.1223000000E+09     0.1000000000E+03
         0.1224000000E+09     0.1000000000E+03
         0.1225000000E+09     0.1000000000E+03
         0.1226000000E+09     0.1000000000E+03
         0.1227000000E+09     0.1000000000E+03
         0.1228000000E+09     0.1000000000E+03
         0.1229000000E+09     0.1000000000E+03
         0.1230000000E+09     0.1000000000E+03
         0.1231000000E+09     0.1000000000E+03
         0.1232000000E+09     0.1000000000E+03
         0.1233000000E+09     0.1000000000E+03
         0.1233000000E+09     0.1000000000E+03
         0.1234000000E+09     0.1000000000E+03
         0.1235000000E+09     0.1000000000E+03
         0.1236000000E+09     0.1000000000E+03
         0.1237000000E+09     0.1000000000E+03
         0.1238000000E+09     0.1000000000E+03
         0.1239000000E+09     0.1000000000E+03
         0.1239000000E+09     0.1000000000E+03
         0.1240000000E+09     0.1000000000E+03
         0.1241000000E+09     0.1000000000E+03
         0.1242000000E+09     0.1000000000E+03
         0.1243000000E+09     0.1000000000E+03
         0.1244000000E+09     0.1000000000E+03
         0.1245000000E+09     0.1000000000E+03
         0.1245000000E+09     0.1000000000E+03
         0.1246000000E+09     0.1000000000E+03
         0.1247000000E+09     0.1000000000E+03
         0.1248000000E+09     0.1000000000E+03
         0.1249000000E+09     0.1000000000E+03
         0.1250000000E+09     0.1000000000E+03
         0.1251000000E+09     0.1000000000E+03
         0.1252000000E+09     0.1000000000E+03
         0.1253000000E+09     0.1000000000E+03
         0.1254000000E+09     0.1000000000E+03
         0.1255000000E+09     0.1000000000E+03
         0.1255000000E+09     0.1000000000E+03
         0.1256000000E+09     0.1000000000E+03
         0.1257000000E+09     0.1000000000E+03
         0.1258000000E+09     0.1000000000E+03
         0.1259000000E+09     0.1000000000E+03
         0.1260000000E+09     0.1000000000E+03



            AREAL INFILTRATION RATE
 READING ON UNIT   19 WITH FORMAT: (10F4.0)            

            1           2           3           4           5           6           7           8           9          10
 ........................................................................................................................
   1   1.0000E-10  2.0000E-10   0.000       0.000       0.000       0.000       0.000       0.000       0.000       0.000    
   2   2.0000E-10  1.0000E-10  2.0000E-10   0.000       0.000      8.0000E-10  8.0000E-10  5.0000E-10   0.000       0.000    
   3    0.000      5.0000E-10  1.0000E-10  1.0000E-10  8.0000E-10  8.0000E-10  5.0000E-10  5.0000E-10   0.000       0.000    
   4   8.0000E-10  5.0000E-10  1.0000E-10  1.0000E-10  1.0000E-10  1.0000E-10  1.0000E-10  1.0000E-10  2.0000E-10   0.000    
   5   8.0000E-10  5.0000E-10  1.0000E-10  1.0000E-10  1.0000E-10  1.0000E-10  1.0000E-10  1.0000E-10  1.0000E-10  1.0000E-10
   6   8.0000E-10  5.0000E-10  5.0000E-10  2.0000E-10  2.0000E-10  1.0000E-10  1.0000E-10  1.0000E-10  1.0000E-10  5.0000E-10
   7   8.0000E-10  5.0000E-10  5.0000E-10  2.0000E-10  2.0000E-10  1.0000E-10  1.0000E-10  2.0000E-10  2.0000E-10   0.000    
   8    0.000      5.0000E-10  5.0000E-10  2.0000E-10  2.0000E-10  1.0000E-10  1.0000E-10  2.0000E-10  5.0000E-10   0.000    
   9    0.000      5.0000E-10  5.0000E-10  2.0000E-10  2.0000E-10  1.0000E-10  1.0000E-10  2.0000E-10  5.0000E-10   0.000    
  10    0.000      5.0000E-10  5.0000E-10  2.0000E-10  2.0000E-10  1.0000E-10  1.0000E-10  2.0000E-10  5.0000E-10  8.0000E-10
  11    0.000      1.0000E-10  1.0000E-10  1.0000E-10  1.0000E-10  1.0000E-10  1.0000E-10  2.0000E-10  5.0000E-10   0.000    
  12   1.0000E-10  1.0000E-10  1.0000E-10  1.0000E-10  1.0000E-10  1.0000E-10  1.0000E-10  1.0000E-10  2.0000E-10   0.000    
  13   1.0000E-10  1.0000E-10  2.0000E-10  2.0000E-10  2.0000E-10  2.0000E-10  2.0000E-10  1.0000E-10  1.0000E-10   0.000    
  14    0.000      2.0000E-10  5.0000E-10  5.0000E-10  5.0000E-10  5.0000E-10  5.0000E-10  2.0000E-10  1.0000E-10   0.000    
  15    0.000       0.000      8.0000E-10  8.0000E-10  8.0000E-10  8.0000E-10   0.000       0.000       0.000       0.000    

                  ET RATE =  1.000000E-08

      ET EXTINCTION DEPTH =  0.500000    

 EXTINCTION WATER CONTENT =  0.200000    

EXTINCTION WATER CONTENT FOR CELL AT ROW     1, COLUMN     1 IS LESS THAN RESIDUAL WATER CONTENT-- SETTING EXTINCTION WATER CONTENT EQUAL TO RESIDUAL WATER CONTENT

EXTINCTION WATER CONTENT FOR CELL AT ROW     1, COLUMN     2 IS LESS THAN RESIDUAL WATER CONTENT-- SETTING EXTINCTION WATER CONTENT EQUAL TO RESIDUAL WATER CONTENT

EXTINCTION WATER CONTENT FOR CELL AT ROW     2, COLUMN     1 IS LESS THAN RESIDUAL WATER CONTENT-- SETTING EXTINCTION WATER CONTENT EQUAL TO RESIDUAL WATER CONTENT

EXTINCTION WATER CONTENT FOR CELL AT ROW     2, COLUMN     2 IS LESS THAN RESIDUAL WATER CONTENT-- SETTING EXTINCTION WATER CONTENT EQUAL TO RESIDUAL WATER CONTENT

EXTINCTION WATER CONTENT FOR CELL AT ROW     2, COLUMN     3 IS LESS THAN RESIDUAL WATER CONTENT-- SETTING EXTINCTION WATER CONTENT EQUAL TO RESIDUAL WATER CONTENT

EXTINCTION WATER CONTENT FOR CELL AT ROW     2, COLUMN     6 IS LESS THAN RESIDUAL WATER CONTENT-- SETTING EXTINCTION WATER CONTENT EQUAL TO RESIDUAL WATER CONTENT

EXTINCTION WATER CONTENT FOR CELL AT ROW     2, COLUMN     7 IS LESS THAN RESIDUAL WATER CONTENT-- SETTING EXTINCTION WATER CONTENT EQUAL TO RESIDUAL WATER CONTENT

EXTINCTION WATER CONTENT FOR CELL AT ROW     2, COLUMN     8 IS LESS THAN RESIDUAL WATER CONTENT-- SETTING EXTINCTION WATER CONTENT EQUAL TO RESIDUAL WATER CONTENT

EXTINCTION WATER CONTENT FOR CELL AT ROW     3, COLUMN     2 IS LESS THAN RESIDUAL WATER CONTENT-- SETTING EXTINCTION WATER CONTENT EQUAL TO RESIDUAL WATER CONTENT

EXTINCTION WATER CONTENT FOR CELL AT ROW     3, COLUMN     3 IS LESS THAN RESIDUAL WATER CONTENT-- SETTING EXTINCTION WATER CONTENT EQUAL TO RESIDUAL WATER CONTENT

EXTINCTION WATER CONTENT FOR CELL AT ROW     3, COLUMN     4 IS LESS THAN RESIDUAL WATER CONTENT-- SETTING EXTINCTION WATER CONTENT EQUAL TO RESIDUAL WATER CONTENT

EXTINCTION WATER CONTENT FOR CELL AT ROW     3, COLUMN     5 IS LESS THAN RESIDUAL WATER CONTENT-- SETTING EXTINCTION WATER CONTENT EQUAL TO RESIDUAL WATER CONTENT

EXTINCTION WATER CONTENT FOR CELL AT ROW     3, COLUMN     6 IS LESS THAN RESIDUAL WATER CONTENT-- SETTING EXTINCTION WATER CONTENT EQUAL TO RESIDUAL WATER CONTENT

EXTINCTION WATER CONTENT FOR CELL AT ROW     3, COLUMN     7 IS LESS THAN RESIDUAL WATER CONTENT-- SETTING EXTINCTION WATER CONTENT EQUAL TO RESIDUAL WATER CONTENT

EXTINCTION WATER CONTENT FOR CELL AT ROW     3, COLUMN     8 IS LESS THAN RESIDUAL WATER CONTENT-- SETTING EXTINCTION WATER CONTENT EQUAL TO RESIDUAL WATER CONTENT

EXTINCTION WATER CONTENT FOR CELL AT ROW     4, COLUMN     1 IS LESS THAN RESIDUAL WATER CONTENT-- SETTING EXTINCTION WATER CONTENT EQUAL TO RESIDUAL WATER CONTENT

EXTINCTION WATER CONTENT FOR CELL AT ROW     4, COLUMN     2 IS LESS THAN RESIDUAL WATER CONTENT-- SETTING EXTINCTION WATER CONTENT EQUAL TO RESIDUAL WATER CONTENT

EXTINCTION WATER CONTENT FOR CELL AT ROW     4, COLUMN     3 IS LESS THAN RESIDUAL WATER CONTENT-- SETTING EXTINCTION WATER CONTENT EQUAL TO RESIDUAL WATER CONTENT

EXTINCTION WATER CONTENT FOR CELL AT ROW     4, COLUMN     4 IS LESS THAN RESIDUAL WATER CONTENT-- SETTING EXTINCTION WATER CONTENT EQUAL TO RESIDUAL WATER CONTENT

EXTINCTION WATER CONTENT FOR CELL AT ROW     4, COLUMN     5 IS LESS THAN RESIDUAL WATER CONTENT-- SETTING EXTINCTION WATER CONTENT EQUAL TO RESIDUAL WATER CONTENT

EXTINCTION WATER CONTENT FOR CELL AT ROW     4, COLUMN     6 IS LESS THAN RESIDUAL WATER CONTENT-- SETTING EXTINCTION WATER CONTENT EQUAL TO RESIDUAL WATER CONTENT

EXTINCTION WATER CONTENT FOR CELL AT ROW     4, COLUMN     7 IS LESS THAN RESIDUAL WATER CONTENT-- SETTING EXTINCTION WATER CONTENT EQUAL TO RESIDUAL WATER CONTENT

EXTINCTION WATER CONTENT FOR CELL AT ROW     4, COLUMN     8 IS LESS THAN RESIDUAL WATER CONTENT-- SETTING EXTINCTION WATER CONTENT EQUAL TO RESIDUAL WATER CONTENT

EXTINCTION WATER CONTENT FOR CELL AT ROW     4, COLUMN     9 IS LESS THAN RESIDUAL WATER CONTENT-- SETTING EXTINCTION WATER CONTENT EQUAL TO RESIDUAL WATER CONTENT

EXTINCTION WATER CONTENT FOR CELL AT ROW     5, COLUMN     1 IS LESS THAN RESIDUAL WATER CONTENT-- SETTING EXTINCTION WATER CONTENT EQUAL TO RESIDUAL WATER CONTENT

EXTINCTION WATER CONTENT FOR CELL AT ROW     5, COLUMN     2 IS LESS THAN RESIDUAL WATER CONTENT-- SETTING EXTINCTION WATER CONTENT EQUAL TO RESIDUAL WATER CONTENT

EXTINCTION WATER CONTENT FOR CELL AT ROW     5, COLUMN     3 IS LESS THAN RESIDUAL WATER CONTENT-- SETTING EXTINCTION WATER CONTENT EQUAL TO RESIDUAL WATER CONTENT

EXTINCTION WATER CONTENT FOR CELL AT ROW     5, COLUMN     4 IS LESS THAN RESIDUAL WATER CONTENT-- SETTING EXTINCTION WATER CONTENT EQUAL TO RESIDUAL WATER CONTENT

EXTINCTION WATER CONTENT FOR CELL AT ROW     5, COLUMN     5 IS LESS THAN RESIDUAL WATER CONTENT-- SETTING EXTINCTION WATER CONTENT EQUAL TO RESIDUAL WATER CONTENT

EXTINCTION WATER CONTENT FOR CELL AT ROW     5, COLUMN     6 IS LESS THAN RESIDUAL WATER CONTENT-- SETTING EXTINCTION WATER CONTENT EQUAL TO RESIDUAL WATER CONTENT

EXTINCTION WATER CONTENT FOR CELL AT ROW     5, COLUMN     7 IS LESS THAN RESIDUAL WATER CONTENT-- SETTING EXTINCTION WATER CONTENT EQUAL TO RESIDUAL WATER CONTENT

EXTINCTION WATER CONTENT FOR CELL AT ROW     5, COLUMN     8 IS LESS THAN RESIDUAL WATER CONTENT-- SETTING EXTINCTION WATER CONTENT EQUAL TO RESIDUAL WATER CONTENT

EXTINCTION WATER CONTENT FOR CELL AT ROW     5, COLUMN     9 IS LESS THAN RESIDUAL WATER CONTENT-- SETTING EXTINCTION WATER CONTENT EQUAL TO RESIDUAL WATER CONTENT

EXTINCTION WATER CONTENT FOR CELL AT ROW     5, COLUMN    10 IS LESS THAN RESIDUAL WATER CONTENT-- SETTING EXTINCTION WATER CONTENT EQUAL TO RESIDUAL WATER CONTENT

EXTINCTION WATER CONTENT FOR CELL AT ROW     6, COLUMN     1 IS LESS THAN RESIDUAL WATER CONTENT-- SETTING EXTINCTION WATER CONTENT EQUAL TO RESIDUAL WATER CONTENT

EXTINCTION WATER CONTENT FOR CELL AT ROW     6, COLUMN     2 IS LESS THAN RESIDUAL WATER CONTENT-- SETTING EXTINCTION WATER CONTENT EQUAL TO RESIDUAL WATER CONTENT

EXTINCTION WATER CONTENT FOR CELL AT ROW     6, COLUMN     3 IS LESS THAN RESIDUAL WATER CONTENT-- SETTING EXTINCTION WATER CONTENT EQUAL TO RESIDUAL WATER CONTENT

EXTINCTION WATER CONTENT FOR CELL AT ROW     6, COLUMN     4 IS LESS THAN RESIDUAL WATER CONTENT-- SETTING EXTINCTION WATER CONTENT EQUAL TO RESIDUAL WATER CONTENT

EXTINCTION WATER CONTENT FOR CELL AT ROW     6, COLUMN     5 IS LESS THAN RESIDUAL WATER CONTENT-- SETTING EXTINCTION WATER CONTENT EQUAL TO RESIDUAL WATER CONTENT

EXTINCTION WATER CONTENT FOR CELL AT ROW     6, COLUMN     6 IS LESS THAN RESIDUAL WATER CONTENT-- SETTING EXTINCTION WATER CONTENT EQUAL TO RESIDUAL WATER CONTENT

EXTINCTION WATER CONTENT FOR CELL AT ROW     6, COLUMN     7 IS LESS THAN RESIDUAL WATER CONTENT-- SETTING EXTINCTION WATER CONTENT EQUAL TO RESIDUAL WATER CONTENT

EXTINCTION WATER CONTENT FOR CELL AT ROW     6, COLUMN     8 IS LESS THAN RESIDUAL WATER CONTENT-- SETTING EXTINCTION WATER CONTENT EQUAL TO RESIDUAL WATER CONTENT

EXTINCTION WATER CONTENT FOR CELL AT ROW     6, COLUMN     9 IS LESS THAN RESIDUAL WATER CONTENT-- SETTING EXTINCTION WATER CONTENT EQUAL TO RESIDUAL WATER CONTENT

EXTINCTION WATER CONTENT FOR CELL AT ROW     6, COLUMN    10 IS LESS THAN RESIDUAL WATER CONTENT-- SETTING EXTINCTION WATER CONTENT EQUAL TO RESIDUAL WATER CONTENT

EXTINCTION WATER CONTENT FOR CELL AT ROW     7, COLUMN     1 IS LESS THAN RESIDUAL WATER CONTENT-- SETTING EXTINCTION WATER CONTENT EQUAL TO RESIDUAL WATER CONTENT

EXTINCTION WATER CONTENT FOR CELL AT ROW     7, COLUMN     2 IS LESS THAN RESIDUAL WATER CONTENT-- SETTING EXTINCTION WATER CONTENT EQUAL TO RESIDUAL WATER CONTENT

EXTINCTION WATER CONTENT FOR CELL AT ROW     7, COLUMN     3 IS LESS THAN RESIDUAL WATER CONTENT-- SETTING EXTINCTION WATER CONTENT EQUAL TO RESIDUAL WATER CONTENT

EXTINCTION WATER CONTENT FOR CELL AT ROW     7, COLUMN     4 IS LESS THAN RESIDUAL WATER CONTENT-- SETTING EXTINCTION WATER CONTENT EQUAL TO RESIDUAL WATER CONTENT

EXTINCTION WATER CONTENT FOR CELL AT ROW     7, COLUMN     5 IS LESS THAN RESIDUAL WATER CONTENT-- SETTING EXTINCTION WATER CONTENT EQUAL TO RESIDUAL WATER CONTENT

EXTINCTION WATER CONTENT FOR CELL AT ROW     7, COLUMN     6 IS LESS THAN RESIDUAL WATER CONTENT-- SETTING EXTINCTION WATER CONTENT EQUAL TO RESIDUAL WATER CONTENT

EXTINCTION WATER CONTENT FOR CELL AT ROW     7, COLUMN     7 IS LESS THAN RESIDUAL WATER CONTENT-- SETTING EXTINCTION WATER CONTENT EQUAL TO RESIDUAL WATER CONTENT

EXTINCTION WATER CONTENT FOR CELL AT ROW     7, COLUMN     8 IS LESS THAN RESIDUAL WATER CONTENT-- SETTING EXTINCTION WATER CONTENT EQUAL TO RESIDUAL WATER CONTENT

EXTINCTION WATER CONTENT FOR CELL AT ROW     7, COLUMN     9 IS LESS THAN RESIDUAL WATER CONTENT-- SETTING EXTINCTION WATER CONTENT EQUAL TO RESIDUAL WATER CONTENT

EXTINCTION WATER CONTENT FOR CELL AT ROW     8, COLUMN     2 IS LESS THAN RESIDUAL WATER CONTENT-- SETTING EXTINCTION WATER CONTENT EQUAL TO RESIDUAL WATER CONTENT

EXTINCTION WATER CONTENT FOR CELL AT ROW     8, COLUMN     3 IS LESS THAN RESIDUAL WATER CONTENT-- SETTING EXTINCTION WATER CONTENT EQUAL TO RESIDUAL WATER CONTENT

EXTINCTION WATER CONTENT FOR CELL AT ROW     8, COLUMN     4 IS LESS THAN RESIDUAL WATER CONTENT-- SETTING EXTINCTION WATER CONTENT EQUAL TO RESIDUAL WATER CONTENT

EXTINCTION WATER CONTENT FOR CELL AT ROW     8, COLUMN     5 IS LESS THAN RESIDUAL WATER CONTENT-- SETTING EXTINCTION WATER CONTENT EQUAL TO RESIDUAL WATER CONTENT

EXTINCTION WATER CONTENT FOR CELL AT ROW     8, COLUMN     6 IS LESS THAN RESIDUAL WATER CONTENT-- SETTING EXTINCTION WATER CONTENT EQUAL TO RESIDUAL WATER CONTENT

EXTINCTION WATER CONTENT FOR CELL AT ROW     8, COLUMN     7 IS LESS THAN RESIDUAL WATER CONTENT-- SETTING EXTINCTION WATER CONTENT EQUAL TO RESIDUAL WATER CONTENT

EXTINCTION WATER CONTENT FOR CELL AT ROW     8, COLUMN     8 IS LESS THAN RESIDUAL WATER CONTENT-- SETTING EXTINCTION WATER CONTENT EQUAL TO RESIDUAL WATER CONTENT

EXTINCTION WATER CONTENT FOR CELL AT ROW     8, COLUMN     9 IS LESS THAN RESIDUAL WATER CONTENT-- SETTING EXTINCTION WATER CONTENT EQUAL TO RESIDUAL WATER CONTENT

EXTINCTION WATER CONTENT FOR CELL AT ROW     9, COLUMN     2 IS LESS THAN RESIDUAL WATER CONTENT-- SETTING EXTINCTION WATER CONTENT EQUAL TO RESIDUAL WATER CONTENT

EXTINCTION WATER CONTENT FOR CELL AT ROW     9, COLUMN     3 IS LESS THAN RESIDUAL WATER CONTENT-- SETTING EXTINCTION WATER CONTENT EQUAL TO RESIDUAL WATER CONTENT

EXTINCTION WATER CONTENT FOR CELL AT ROW     9, COLUMN     4 IS LESS THAN RESIDUAL WATER CONTENT-- SETTING EXTINCTION WATER CONTENT EQUAL TO RESIDUAL WATER CONTENT

EXTINCTION WATER CONTENT FOR CELL AT ROW     9, COLUMN     5 IS LESS THAN RESIDUAL WATER CONTENT-- SETTING EXTINCTION WATER CONTENT EQUAL TO RESIDUAL WATER CONTENT

EXTINCTION WATER CONTENT FOR CELL AT ROW     9, COLUMN     6 IS LESS THAN RESIDUAL WATER CONTENT-- SETTING EXTINCTION WATER CONTENT EQUAL TO RESIDUAL WATER CONTENT

EXTINCTION WATER CONTENT FOR CELL AT ROW     9, COLUMN     7 IS LESS THAN RESIDUAL WATER CONTENT-- SETTING EXTINCTION WATER CONTENT EQUAL TO RESIDUAL WATER CONTENT

EXTINCTION WATER CONTENT FOR CELL AT ROW     9, COLUMN     8 IS LESS THAN RESIDUAL WATER CONTENT-- SETTING EXTINCTION WATER CONTENT EQUAL TO RESIDUAL WATER CONTENT

EXTINCTION WATER CONTENT FOR CELL AT ROW     9, COLUMN     9 IS LESS THAN RESIDUAL WATER CONTENT-- SETTING EXTINCTION WATER CONTENT EQUAL TO RESIDUAL WATER CONTENT

EXTINCTION WATER CONTENT FOR CELL AT ROW    10, COLUMN     2 IS LESS THAN RESIDUAL WATER CONTENT-- SETTING EXTINCTION WATER CONTENT EQUAL TO RESIDUAL WATER CONTENT

EXTINCTION WATER CONTENT FOR CELL AT ROW    10, COLUMN     3 IS LESS THAN RESIDUAL WATER CONTENT-- SETTING EXTINCTION WATER CONTENT EQUAL TO RESIDUAL WATER CONTENT

EXTINCTION WATER CONTENT FOR CELL AT ROW    10, COLUMN     4 IS LESS THAN RESIDUAL WATER CONTENT-- SETTING EXTINCTION WATER CONTENT EQUAL TO RESIDUAL WATER CONTENT

EXTINCTION WATER CONTENT FOR CELL AT ROW    10, COLUMN     5 IS LESS THAN RESIDUAL WATER CONTENT-- SETTING EXTINCTION WATER CONTENT EQUAL TO RESIDUAL WATER CONTENT

EXTINCTION WATER CONTENT FOR CELL AT ROW    10, COLUMN     6 IS LESS THAN RESIDUAL WATER CONTENT-- SETTING EXTINCTION WATER CONTENT EQUAL TO RESIDUAL WATER CONTENT

EXTINCTION WATER CONTENT FOR CELL AT ROW    10, COLUMN     7 IS LESS THAN RESIDUAL WATER CONTENT-- SETTING EXTINCTION WATER CONTENT EQUAL TO RESIDUAL WATER CONTENT

EXTINCTION WATER CONTENT FOR CELL AT ROW    10, COLUMN     8 IS LESS THAN RESIDUAL WATER CONTENT-- SETTING EXTINCTION WATER CONTENT EQUAL TO RESIDUAL WATER CONTENT

EXTINCTION WATER CONTENT FOR CELL AT ROW    10, COLUMN     9 IS LESS THAN RESIDUAL WATER CONTENT-- SETTING EXTINCTION WATER CONTENT EQUAL TO RESIDUAL WATER CONTENT

EXTINCTION WATER CONTENT FOR CELL AT ROW    10, COLUMN    10 IS LESS THAN RESIDUAL WATER CONTENT-- SETTING EXTINCTION WATER CONTENT EQUAL TO RESIDUAL WATER CONTENT

EXTINCTION WATER CONTENT FOR CELL AT ROW    11, COLUMN     2 IS LESS THAN RESIDUAL WATER CONTENT-- SETTING EXTINCTION WATER CONTENT EQUAL TO RESIDUAL WATER CONTENT

EXTINCTION WATER CONTENT FOR CELL AT ROW    11, COLUMN     3 IS LESS THAN RESIDUAL WATER CONTENT-- SETTING EXTINCTION WATER CONTENT EQUAL TO RESIDUAL WATER CONTENT

EXTINCTION WATER CONTENT FOR CELL AT ROW    11, COLUMN     4 IS LESS THAN RESIDUAL WATER CONTENT-- SETTING EXTINCTION WATER CONTENT EQUAL TO RESIDUAL WATER CONTENT

EXTINCTION WATER CONTENT FOR CELL AT ROW    11, COLUMN     5 IS LESS THAN RESIDUAL WATER CONTENT-- SETTING EXTINCTION WATER CONTENT EQUAL TO RESIDUAL WATER CONTENT

EXTINCTION WATER CONTENT FOR CELL AT ROW    11, COLUMN     6 IS LESS THAN RESIDUAL WATER CONTENT-- SETTING EXTINCTION WATER CONTENT EQUAL TO RESIDUAL WATER CONTENT

EXTINCTION WATER CONTENT FOR CELL AT ROW    11, COLUMN     7 IS LESS THAN RESIDUAL WATER CONTENT-- SETTING EXTINCTION WATER CONTENT EQUAL TO RESIDUAL WATER CONTENT

EXTINCTION WATER CONTENT FOR CELL AT ROW    11, COLUMN     8 IS LESS THAN RESIDUAL WATER CONTENT-- SETTING EXTINCTION WATER CONTENT EQUAL TO RESIDUAL WATER CONTENT

EXTINCTION WATER CONTENT FOR CELL AT ROW    11, COLUMN     9 IS LESS THAN RESIDUAL WATER CONTENT-- SETTING EXTINCTION WATER CONTENT EQUAL TO RESIDUAL WATER CONTENT

EXTINCTION WATER CONTENT FOR CELL AT ROW    12, COLUMN     1 IS LESS THAN RESIDUAL WATER CONTENT-- SETTING EXTINCTION WATER CONTENT EQUAL TO RESIDUAL WATER CONTENT

EXTINCTION WATER CONTENT FOR CELL AT ROW    12, COLUMN     2 IS LESS THAN RESIDUAL WATER CONTENT-- SETTING EXTINCTION WATER CONTENT EQUAL TO RESIDUAL WATER CONTENT

EXTINCTION WATER CONTENT FOR CELL AT ROW    12, COLUMN     3 IS LESS THAN RESIDUAL WATER CONTENT-- SETTING EXTINCTION WATER CONTENT EQUAL TO RESIDUAL WATER CONTENT

EXTINCTION WATER CONTENT FOR CELL AT ROW    12, COLUMN     4 IS LESS THAN RESIDUAL WATER CONTENT-- SETTING EXTINCTION WATER CONTENT EQUAL TO RESIDUAL WATER CONTENT

EXTINCTION WATER CONTENT FOR CELL AT ROW    12, COLUMN     5 IS LESS THAN RESIDUAL WATER CONTENT-- SETTING EXTINCTION WATER CONTENT EQUAL TO RESIDUAL WATER CONTENT

EXTINCTION WATER CONTENT FOR CELL AT ROW    12, COLUMN     6 IS LESS THAN RESIDUAL WATER CONTENT-- SETTING EXTINCTION WATER CONTENT EQUAL TO RESIDUAL WATER CONTENT

EXTINCTION WATER CONTENT FOR CELL AT ROW    12, COLUMN     7 IS LESS THAN RESIDUAL WATER CONTENT-- SETTING EXTINCTION WATER CONTENT EQUAL TO RESIDUAL WATER CONTENT

EXTINCTION WATER CONTENT FOR CELL AT ROW    12, COLUMN     8 IS LESS THAN RESIDUAL WATER CONTENT-- SETTING EXTINCTION WATER CONTENT EQUAL TO RESIDUAL WATER CONTENT

EXTINCTION WATER CONTENT FOR CELL AT ROW    12, COLUMN     9 IS LESS THAN RESIDUAL WATER CONTENT-- SETTING EXTINCTION WATER CONTENT EQUAL TO RESIDUAL WATER CONTENT

EXTINCTION WATER CONTENT FOR CELL AT ROW    13, COLUMN     1 IS LESS THAN RESIDUAL WATER CONTENT-- SETTING EXTINCTION WATER CONTENT EQUAL TO RESIDUAL WATER CONTENT

EXTINCTION WATER CONTENT FOR CELL AT ROW    13, COLUMN     2 IS LESS THAN RESIDUAL WATER CONTENT-- SETTING EXTINCTION WATER CONTENT EQUAL TO RESIDUAL WATER CONTENT

EXTINCTION WATER CONTENT FOR CELL AT ROW    13, COLUMN     3 IS LESS THAN RESIDUAL WATER CONTENT-- SETTING EXTINCTION WATER CONTENT EQUAL TO RESIDUAL WATER CONTENT

EXTINCTION WATER CONTENT FOR CELL AT ROW    13, COLUMN     4 IS LESS THAN RESIDUAL WATER CONTENT-- SETTING EXTINCTION WATER CONTENT EQUAL TO RESIDUAL WATER CONTENT

EXTINCTION WATER CONTENT FOR CELL AT ROW    13, COLUMN     5 IS LESS THAN RESIDUAL WATER CONTENT-- SETTING EXTINCTION WATER CONTENT EQUAL TO RESIDUAL WATER CONTENT

EXTINCTION WATER CONTENT FOR CELL AT ROW    13, COLUMN     6 IS LESS THAN RESIDUAL WATER CONTENT-- SETTING EXTINCTION WATER CONTENT EQUAL TO RESIDUAL WATER CONTENT

EXTINCTION WATER CONTENT FOR CELL AT ROW    13, COLUMN     7 IS LESS THAN RESIDUAL WATER CONTENT-- SETTING EXTINCTION WATER CONTENT EQUAL TO RESIDUAL WATER CONTENT

EXTINCTION WATER CONTENT FOR CELL AT ROW    13, COLUMN     8 IS LESS THAN RESIDUAL WATER CONTENT-- SETTING EXTINCTION WATER CONTENT EQUAL TO RESIDUAL WATER CONTENT

EXTINCTION WATER CONTENT FOR CELL AT ROW    13, COLUMN     9 IS LESS THAN RESIDUAL WATER CONTENT-- SETTING EXTINCTION WATER CONTENT EQUAL TO RESIDUAL WATER CONTENT

EXTINCTION WATER CONTENT FOR CELL AT ROW    14, COLUMN     2 IS LESS THAN RESIDUAL WATER CONTENT-- SETTING EXTINCTION WATER CONTENT EQUAL TO RESIDUAL WATER CONTENT

EXTINCTION WATER CONTENT FOR CELL AT ROW    14, COLUMN     3 IS LESS THAN RESIDUAL WATER CONTENT-- SETTING EXTINCTION WATER CONTENT EQUAL TO RESIDUAL WATER CONTENT

EXTINCTION WATER CONTENT FOR CELL AT ROW    14, COLUMN     4 IS LESS THAN RESIDUAL WATER CONTENT-- SETTING EXTINCTION WATER CONTENT EQUAL TO RESIDUAL WATER CONTENT

EXTINCTION WATER CONTENT FOR CELL AT ROW    14, COLUMN     5 IS LESS THAN RESIDUAL WATER CONTENT-- SETTING EXTINCTION WATER CONTENT EQUAL TO RESIDUAL WATER CONTENT

EXTINCTION WATER CONTENT FOR CELL AT ROW    14, COLUMN     6 IS LESS THAN RESIDUAL WATER CONTENT-- SETTING EXTINCTION WATER CONTENT EQUAL TO RESIDUAL WATER CONTENT

EXTINCTION WATER CONTENT FOR CELL AT ROW    14, COLUMN     7 IS LESS THAN RESIDUAL WATER CONTENT-- SETTING EXTINCTION WATER CONTENT EQUAL TO RESIDUAL WATER CONTENT

EXTINCTION WATER CONTENT FOR CELL AT ROW    14, COLUMN     8 IS LESS THAN RESIDUAL WATER CONTENT-- SETTING EXTINCTION WATER CONTENT EQUAL TO RESIDUAL WATER CONTENT

EXTINCTION WATER CONTENT FOR CELL AT ROW    14, COLUMN     9 IS LESS THAN RESIDUAL WATER CONTENT-- SETTING EXTINCTION WATER CONTENT EQUAL TO RESIDUAL WATER CONTENT

EXTINCTION WATER CONTENT FOR CELL AT ROW    15, COLUMN     3 IS LESS THAN RESIDUAL WATER CONTENT-- SETTING EXTINCTION WATER CONTENT EQUAL TO RESIDUAL WATER CONTENT

EXTINCTION WATER CONTENT FOR CELL AT ROW    15, COLUMN     4 IS LESS THAN RESIDUAL WATER CONTENT-- SETTING EXTINCTION WATER CONTENT EQUAL TO RESIDUAL WATER CONTENT

EXTINCTION WATER CONTENT FOR CELL AT ROW    15, COLUMN     5 IS LESS THAN RESIDUAL WATER CONTENT-- SETTING EXTINCTION WATER CONTENT EQUAL TO RESIDUAL WATER CONTENT

EXTINCTION WATER CONTENT FOR CELL AT ROW    15, COLUMN     6 IS LESS THAN RESIDUAL WATER CONTENT-- SETTING EXTINCTION WATER CONTENT EQUAL TO RESIDUAL WATER CONTENT

       AIR ENTRY PRESSURE =  -1.10000    

            ROOT PRESSURE =  -75.0000    

            ROOT ACTIVITY =   1.00000    
 # AG segment list

 PROCESSING SEGMENT LIST

 FINISHED READING SEGMENT LIST
 # AG well list

 PROCESSING WELL LIST

 LAYER   ROW   COL   MAX STRESS RATE         
 --------------------------------------------
      1      1      6      4      -100.0    
      2      1      6      5      -100.0    
      3      1      7      4      -100.0    
      4      1      7      5      -100.0    
      5      1      8      4      -100.0    
      6      1      8      5      -100.0    

 FINISHED READING WELL LIST

      6 WELLS

 PROCESSING AG STRESS PERIOD DATA
 # AG stress period

 READING AG STRESS PERIOD DATA

 READING IRRIGATION SEGMENT

 READING IRRIGATION WELL

 READING SUPPLEMENTAL WELL

 NO IRRPOND OR REUSING IRRPOND DATA FROM LAST STRESS PERIOD

 END PROCESSING AG STRESS PERIOD DATA OPTIONS
 
 SOLVING FOR HEAD 
                                                   Max.-Head-Change                         Max.-Flux-Residual
  Residual-Control   Outer-Iter.   Inner-Iter.     Column Row Layer    Maximum-Head-Change  Column Row Layer    Maximum-Flux-Residual          L2-NORM 
          0                 1           6             2    2     1      -0.2843914191E+02       3    3    1        -0.3360741367E+01      0.9336255202E+01
          0                 2           6             1    1     1      -0.3130416779E+02       1   13    1        -0.6347781745E+02      0.6369041869E+02
          0                 3           5             1    1     1      -0.1456238505E+01       6   13    1        -0.2214092883E+01      0.3433615922E+01
          0                 4           5             5   13     1      -0.1645980091E+00       5   13    1        -0.3292041480E+00      0.3977240951E+00
          0                 5           4             5   14     1       0.3281686166E-01       5   13    1         0.1669597068E-01      0.2767752842E-01
          0                 6           2             5   14     1      -0.1281592110E-02       5   13    1        -0.6694907493E-03      0.2031367476E-02
          0                 7           1             5   10     1       0.1514216708E-04       5   10    1         0.2520492239E-04      0.8039520649E-04

    ------------------------------------------------
       NWT REQUIRED            7 OUTER ITERATIONS 
       AND A TOTAL OF         29 INNER ITERATIONS.
    ------------------------------------------------

 OUTPUT CONTROL FOR STRESS PERIOD    1   TIME STEP    1
    PRINT BUDGET
    PRINT HEAD FOR ALL LAYERS
    SAVE BUDGET
    SAVE HEAD FOR ALL LAYERS
 UBDSV2 SAVING "   CONSTANT HEAD" ON UNIT 102 AT TIME STEP 1, STRESS PERIOD 1
 UBDSV1 SAVING "FLOW RIGHT FACE " ON UNIT 102 AT TIME STEP 1, STRESS PERIOD1
 UBDSV1 SAVING "FLOW FRONT FACE " ON UNIT 102 AT TIME STEP 1, STRESS PERIOD1

  HEAD DEP BOUNDS   PERIOD    1   STEP     1
 BOUNDARY      1   LAYER   1   ROW    13   COL     1   RATE   -0.287059    
 BOUNDARY      2   LAYER   1   ROW    14   COL     9   RATE    0.285620    



 STREAM LISTING     PERIOD      1   STEP        1

 LAYER ROW COL. STREAM  RCH.  FLOW INTO     FLOW TO   FLOW OUT OF   OVRLND.     DIRECT     STREAM       STREAM     STREAM     STREAM   STREAMBED  STREAMBED
                SEG.NO.  NO.  STRM. RCH.    AQUIFER    STRM. RCH.    RUNOFF     PRECIP       ET          HEAD       DEPTH      WIDTH   CONDCTNC.   GRADIENT

   1    1    1     1     1    3.7500E+00  8.5597E-02   3.6644E+00  0.000E+00  0.000E+00  0.000E+00  1.09373E+03  6.817E-01  5.166E+00  2.325E-02  1.227E+00
   1    2    2     1     2    3.6644E+00  1.3158E-01   3.5328E+00  0.000E+00  0.000E+00  0.000E+00  1.08873E+03  6.747E-01  5.115E+00  3.581E-02  1.225E+00
   1    3    3     1     3    3.5328E+00  1.1125E-01   3.4216E+00  0.000E+00  0.000E+00  0.000E+00  1.08309E+03  6.667E-01  5.057E+00  3.034E-02  1.222E+00
   1    3    4     1     4    3.4216E+00  1.0164E-01   3.3199E+00  0.000E+00  0.000E+00  0.000E+00  1.07807E+03  6.595E-01  5.004E+00  2.777E-02  1.220E+00
   1    4    5     2     1    1.3199E+00  2.4920E-01   1.0707E+00  0.000E+00  0.000E+00  0.000E+00  1.07213E+03  1.948E-01  1.200E+01  7.800E-02  1.065E+00
   1    5    6     2     2    1.0707E+00  1.9035E-01   8.8040E-01  0.000E+00  0.000E+00  0.000E+00  1.06668E+03  1.725E-01  1.200E+01  6.000E-02  1.057E+00
   1    6    6     2     3    8.8040E-01  1.8909E-01   6.9131E-01  0.000E+00  0.000E+00  0.000E+00  1.06194E+03  1.515E-01  1.200E+01  6.000E-02  1.050E+00
   1    7    6     2     4    6.9131E-01  1.8771E-01   5.0360E-01  0.000E+00  0.000E+00  0.000E+00  1.05720E+03  1.285E-01  1.200E+01  6.000E-02  1.043E+00
   1    8    6     2     5    5.0360E-01  1.8616E-01   3.1744E-01  0.000E+00  0.000E+00  0.000E+00  1.05246E+03  1.026E-01  1.200E+01  6.000E-02  1.034E+00
   1    3    5     3     1    2.0000E+00  2.8252E-01   1.7175E+00  0.000E+00  0.000E+00  0.000E+00  1.07555E+03  1.909E+00  9.636E+00  7.227E-02  1.955E+00
   1    3    6     3     2    1.7175E+00  2.4905E-01   1.4684E+00  0.000E+00  0.000E+00  0.000E+00  1.07264E+03  1.727E+00  8.909E+00  6.682E-02  1.864E+00
   1    3    7     3     3    1.4684E+00  1.9718E-01   1.2712E+00  0.000E+00  0.000E+00  0.000E+00  1.06987E+03  1.555E+00  8.218E+00  5.547E-02  1.777E+00
   1    4    8     3     4    1.2712E+00  2.2567E-01   1.0456E+00  0.000E+00  0.000E+00  0.000E+00  1.06682E+03  1.364E+00  7.455E+00  6.709E-02  1.682E+00
   1    5    8     3     5    1.0456E+00  1.5790E-01   8.8768E-01  0.000E+00  0.000E+00  0.000E+00  1.06362E+03  1.164E+00  6.655E+00  4.991E-02  1.582E+00
   1    6    8     3     6    8.8768E-01  5.5980E-02   8.3170E-01  0.000E+00  0.000E+00  0.000E+00  1.06158E+03  1.036E+00  6.145E+00  1.844E-02  1.518E+00
   1    5   10     4     1    1.0000E+01  9.0919E-02   9.9091E+00  0.000E+00  0.000E+00  0.000E+00  1.07836E+03  6.368E-01  1.000E+01  2.500E-02  1.212E+00
   1    5    9     4     2    9.9091E+00  1.8158E-01   9.7275E+00  0.000E+00  0.000E+00  0.000E+00  1.07154E+03  6.315E-01  1.000E+01  5.000E-02  1.211E+00
   1    6    8     4     3    9.7275E+00  1.2689E-01   9.6006E+00  0.000E+00  0.000E+00  0.000E+00  1.06381E+03  6.256E-01  1.000E+01  3.500E-02  1.209E+00
   1    6    8     5     1    1.0432E+01  2.2686E-01   1.0205E+01  0.000E+00  0.000E+00  0.000E+00  1.05868E+03  6.790E-01  1.542E+01  6.166E-02  1.226E+00
   1    7    7     5     2    1.0205E+01  2.7894E-01   9.9265E+00  0.000E+00  0.000E+00  0.000E+00  1.05417E+03  6.732E-01  1.519E+01  7.594E-02  1.224E+00
   1    8    7     5     3    9.9265E+00  1.9221E-01   9.7343E+00  0.000E+00  0.000E+00  0.000E+00  1.04992E+03  6.676E-01  1.497E+01  5.241E-02  1.223E+00
   1    8    6     5     4    9.7343E+00  1.3577E-01   9.5985E+00  0.000E+00  0.000E+00  0.000E+00  1.04691E+03  6.637E-01  1.482E+01  3.706E-02  1.221E+00
   1    9    6     6     1    9.9160E+00  2.2178E-01   9.6942E+00  0.000E+00  0.000E+00  0.000E+00  1.04342E+03  6.964E-01  1.200E+01  6.000E-02  1.232E+00
   1   10    7     6     2    9.6942E+00  2.2121E-01   9.4730E+00  0.000E+00  0.000E+00  0.000E+00  1.03887E+03  6.869E-01  1.200E+01  6.000E-02  1.229E+00
   1   11    7     6     3    9.4730E+00  2.2064E-01   9.2523E+00  0.000E+00  0.000E+00  0.000E+00  1.03431E+03  6.773E-01  1.200E+01  6.000E-02  1.226E+00
   1   12    7     6     4    9.2523E+00  2.2006E-01   9.0323E+00  0.000E+00  0.000E+00  0.000E+00  1.02976E+03  6.677E-01  1.200E+01  6.000E-02  1.223E+00
   1   13    7     6     5    9.0323E+00 -1.1354E-01   9.1458E+00  0.000E+00  0.000E+00  0.000E+00  1.02657E+03  6.654E-01  1.200E+01  2.400E-01 -1.577E-01
   1   14    9     7     1    1.5000E+02  1.3338E+00   1.4867E+02  0.000E+00  0.000E+00  0.000E+00  1.03987E+03  2.288E+00  5.529E+01  5.593E-01  7.949E-01
   1   13    8     7     2    1.4867E+02  1.8355E+00   1.4683E+02  0.000E+00  0.000E+00  0.000E+00  1.03478E+03  2.279E+00  5.526E+01  6.148E-01  9.952E-01
   1   13    7     7     3    1.4683E+02  1.4756E+00   1.4536E+02  0.000E+00  0.000E+00  0.000E+00  1.02969E+03  2.270E+00  5.522E+01  5.585E-01  8.807E-01
   1   13    6     8     1    1.5450E+02  8.2944E-01   1.5367E+02  0.000E+00  0.000E+00  0.000E+00  1.02472E+03  2.845E+00  4.126E+01  4.204E-01  6.576E-01
   1   13    5     8     2    1.5367E+02  1.0127E-01   1.5357E+02  0.000E+00  0.000E+00  0.000E+00  1.01847E+03  2.842E+00  4.121E+01  4.200E-01  8.038E-02
   1   13    4     8     3    1.5357E+02 -2.6792E+00   1.5625E+02  0.000E+00  0.000E+00  0.000E+00  1.01223E+03  2.851E+00  4.134E+01  4.213E+00 -2.120E-01
   1   13    3     8     4    1.5625E+02 -3.7567E+00   1.6001E+02  0.000E+00  0.000E+00  0.000E+00  1.00600E+03  2.873E+00  4.166E+01  4.245E+00 -2.950E-01
   1   13    2     8     5    1.6001E+02 -2.6055E+00   1.6261E+02  0.000E+00  0.000E+00  0.000E+00  9.99770E+02  2.895E+00  4.197E+01  4.277E+00 -2.031E-01
   1   13    1     8     6    1.6261E+02 -1.9843E+00   1.6460E+02  0.000E+00  0.000E+00  0.000E+00  9.94785E+02  2.910E+00  4.220E+01  2.580E+00 -2.564E-01
   1    8    6     9     1    0.0000E+00  0.0000E+00   0.0000E+00  0.000E+00  0.000E+00  0.000E+00  1.07875E+03  0.000E+00  4.000E+00  0.000E+00  1.000E+00
   1    8    5     9     2    0.0000E+00  0.0000E+00   0.0000E+00  0.000E+00  0.000E+00  0.000E+00  1.07825E+03  0.000E+00  4.000E+00  0.000E+00  1.000E+00



 UBDSV3 SAVING "           GW ET" ON UNIT  61 AT TIME STEP 1, STRESS PERIOD 1
 UBDSV3 SAVING "    UZF RECHARGE" ON UNIT  61 AT TIME STEP 1, STRESS PERIOD 1
 UBDSV3 SAVING " SURFACE LEAKAGE" ON UNIT  61 AT TIME STEP 1, STRESS PERIOD 1
 UBDSV3 SAVING "       HORT+DUNN" ON UNIT  61 AT TIME STEP 1, STRESS PERIOD 1
 UBDSV3 SAVING "  STORAGE CHANGE" ON UNIT  61 AT TIME STEP 1, STRESS PERIOD 1


UNSATURATED ZONE PACKAGE VOLUMETRIC BUDGET FOR  TIME STEP     1 STRESS PERIOD    1
  ------------------------------------------------------------------------------



     CUMULATIVE VOLUMES      L**3       RATES FOR THIS TIME STEP      L**3/T
     ------------------                 ------------------------

           IN:                                      IN:
           ---                                      ---
        INFILTRATION =       73224.0000          INFILTRATION =           0.8475

          OUT:                                     OUT:
          ----                                     ----
              UZF ET =       0.0000E+00                UZF ET =       0.0000E+00
        UZF RECHARGE =       73224.0000          UZF RECHARGE =           0.8475

            IN - OUT =       0.0000E+00              IN - OUT =       0.0000E+00

          STORAGE:                                 STORAGE:
          --------                                 --------
      STORAGE CHANGE =       0.0000E+00        STORAGE CHANGE =       0.0000E+00

 PERCENT DISCREPANCY IS DIFFERENCE BETWEEN IN-OUT MINUS CHANGE IN STORAGE
 DIVIDED BY THE AVERAGE OF IN AND OUT TIMES 100

 PERCENT DISCREPANCY =           0.00     PERCENT DISCREPANCY =           0.00






 

            AG WELLS      PERIOD    1   STEP   1
 AG WELL      1   LAYER   1   ROW     6   COL     4   RATE     0.00000    
 AG WELL      2   LAYER   1   ROW     6   COL     5   RATE     0.00000    
 AG WELL      3   LAYER   1   ROW     7   COL     4   RATE     0.00000    
 AG WELL      4   LAYER   1   ROW     7   COL     5   RATE     0.00000    
 AG WELL      5   LAYER   1   ROW     8   COL     4   RATE     0.00000    
 AG WELL      6   LAYER   1   ROW     8   COL     5   RATE     0.00000    
 
 

   DIVERSION SEGMENTS     PERIOD    1   STEP   1
 
 

        SW IRRIGATION     PERIOD    1   STEP   1
 
 

        GW IRRIGATION     PERIOD    1   STEP   1
 
1
  VOLUMETRIC BUDGET FOR AGRICULTURAL FIELDS AT  END OF TIME STEP    1, STRESS PERIOD   1
  ------------------------------------------------------------------------------

     CUMULATIVE VOLUMES      L**3       RATES FOR THIS TIME STEP      L**3/T
     ------------------                 ------------------------

           IN:                                      IN:
           ---                                      ---
               AG WELLS  =           0.0000                 AG WELLS  =           0.0000
      DIVERSION SEGMENTS =           0.0000        DIVERSION SEGMENTS =           0.0000
       IRRIGATION PONDS  =           0.0000         IRRIGATION PONDS  =           0.0000
           GW IRRIGATION =           0.0000             GW IRRIGATION =           0.0000
           SW IRRIGATION =           0.0000             SW IRRIGATION =           0.0000
        SYSTEM LOSSES GW =           0.0000          SYSTEM LOSSES GW =           0.0000
        SYSTEM LOSSES SW =           0.0000          SYSTEM LOSSES SW =           0.0000

                TOTAL IN =           0.0000                  TOTAL IN =           0.0000

          OUT:                                     OUT:
          ----                                     ----
               AG WELLS  =           0.0000                 AG WELLS  =           0.0000
      DIVERSION SEGMENTS =           0.0000        DIVERSION SEGMENTS =           0.0000
       IRRIGATION PONDS  =           0.0000         IRRIGATION PONDS  =           0.0000
           GW IRRIGATION =           0.0000             GW IRRIGATION =           0.0000
           SW IRRIGATION =           0.0000             SW IRRIGATION =           0.0000
        SYSTEM LOSSES GW =           0.0000          SYSTEM LOSSES GW =           0.0000
        SYSTEM LOSSES SW =           0.0000          SYSTEM LOSSES SW =           0.0000

               TOTAL OUT =           0.0000                 TOTAL OUT =           0.0000

                IN - OUT =           0.0000                  IN - OUT =           0.0000

     PERCENT DISCREPANCY =           0.00         PERCENT DISCREPANCY =           0.00



1
              HEAD IN LAYER 1 AT END OF TIME STEP 1 IN STRESS PERIOD 1
  ---------------------------------------------------------------------------

           1       2       3       4       5       6       7       8       9      10
 ...................................................................................
   1  1032.36 1031.32 6999.00 6999.00 6999.00 6999.00 6999.00 6999.00 6999.00 6999.00
   2  1031.40 1030.17 1029.58 6999.00 6999.00 1030.68 1030.83 1030.79 6999.00 6999.00
   3  6999.00 1029.27 1028.96 1028.73 1029.28 1029.91 1030.40 1030.37 6999.00 6999.00
   4  1028.57 1028.53 1028.35 1028.17 1028.24 1028.30 1028.78 1029.83 1029.56 6999.00
   5  1028.13 1027.76 1027.59 1027.51 1027.61 1027.82 1027.99 1028.47 1029.10 1029.63
   6  1027.57 1027.02 1026.83 1026.81 1026.93 1027.26 1027.55 1028.08 1028.52 1029.45
   7  1027.07 1026.08 1025.92 1025.96 1026.14 1026.55 1026.98 1027.45 1027.96 6999.00
   8  6999.00 1024.71 1024.75 1024.91 1025.15 1025.65 1026.08 1026.80 1027.36 6999.00
   9  6999.00 1022.70 1023.03 1023.48 1023.88 1024.53 1025.05 1025.79 1026.91 6999.00
  10  6999.00 1019.87 1020.64 1021.69 1022.47 1023.49 1024.39 1025.46 1027.07 1027.71
  11  6999.00 1015.35 1016.78 1019.32 1020.96 1022.69 1024.22 1026.00 1028.19 6999.00
  12  1001.91 1007.94 1012.08 1016.04 1019.32 1022.30 1024.79 1028.19 1031.18 6999.00
  13   995.55 1000.38 1006.88 1012.86 1018.23 1022.75 1027.05 1031.79 1034.63 6999.00
  14  6999.00 1005.79 1008.88 1013.53 1018.29 1022.70 1027.60 1033.07 1037.48 6999.00
  15  6999.00 6999.00 1012.52 1015.24 1018.71 1021.73 6999.00 6999.00 6999.00 6999.00

 HEAD WILL BE SAVED ON UNIT   62 AT END OF TIME STEP    1, STRESS PERIOD    1
1
  VOLUMETRIC BUDGET FOR ENTIRE MODEL AT END OF TIME STEP    1, STRESS PERIOD   1
  ------------------------------------------------------------------------------

     CUMULATIVE VOLUMES      L**3       RATES FOR THIS TIME STEP      L**3/T
     ------------------                 ------------------------

           IN:                                      IN:
           ---                                      ---
             STORAGE     =           0.0000               STORAGE     =           0.0000
       CONSTANT HEAD     =           0.0000         CONSTANT HEAD     =           0.0000
     HEAD DEP BOUNDS     =       24677.5273       HEAD DEP BOUNDS     =           0.2856
      STREAM LEAKAGE     =      889333.8125        STREAM LEAKAGE     =          10.2932
        UZF RECHARGE     =       73223.9531          UZF RECHARGE     =           0.8475
               GW ET     =           0.0000                 GW ET     =           0.0000
     SURFACE LEAKAGE     =           0.0000       SURFACE LEAKAGE     =           0.0000
           AG WELLS      =           0.0000             AG WELLS      =           0.0000

                TOTAL IN =      987235.2500                  TOTAL IN =          11.4263

          OUT:                                     OUT:
          ----                                     ----
             STORAGE     =           0.0000               STORAGE     =           0.0000
       CONSTANT HEAD     =           0.0000         CONSTANT HEAD     =           0.0000
     HEAD DEP BOUNDS     =       24801.8652       HEAD DEP BOUNDS     =           0.2871
      STREAM LEAKAGE     =      962433.3125        STREAM LEAKAGE     =          11.1393
        UZF RECHARGE     =           0.0000          UZF RECHARGE     =           0.0000
               GW ET     =           0.0000                 GW ET     =           0.0000
     SURFACE LEAKAGE     =           0.0000       SURFACE LEAKAGE     =           0.0000
           AG WELLS      =           0.0000             AG WELLS      =           0.0000

               TOTAL OUT =      987235.1875                 TOTAL OUT =          11.4263

                IN - OUT =       6.2500E-02                  IN - OUT =       1.9073E-06

     PERCENT DISCREPANCY =           0.00         PERCENT DISCREPANCY =           0.00






         TIME SUMMARY AT END OF TIME STEP    1 IN STRESS PERIOD    1
                    SECONDS     MINUTES      HOURS       DAYS        YEARS
                    -----------------------------------------------------------
   TIME STEP LENGTH  86400.      1440.0      24.000      1.0000     2.73785E-03
 STRESS PERIOD TIME  86400.      1440.0      24.000      1.0000     2.73785E-03
         TOTAL TIME  86400.      1440.0      24.000      1.0000     2.73785E-03
1
1
                            STRESS PERIOD NO.    2, LENGTH =   2630000.    
                            -----------------------------------------------

                              NUMBER OF TIME STEPS =    30

                               MULTIPLIER FOR DELT =     1.000

                            INITIAL TIME STEP SIZE =   87666.66    

 REUSING NON-PARAMETER GHB CELLS FROM LAST STRESS PERIOD

      2 GHB CELLS

 REUSING STREAM SEGMENT DATA FROM LAST STRESS PERIOD



            AREAL INFILTRATION RATE
 READING ON UNIT   19 WITH FORMAT: (FREE)              

            1           2           3           4           5           6           7           8           9          10
 ........................................................................................................................
   1   1.0000E-10  2.0000E-10   0.000       0.000       0.000       0.000       0.000       0.000       0.000       0.000    
   2   2.0000E-10  1.0000E-10  2.0000E-10   0.000       0.000      8.0000E-10  8.0000E-10  5.0000E-10   0.000       0.000    
   3    0.000      5.0000E-10  1.0000E-10  1.0000E-10  8.0000E-10  8.0000E-10  5.0000E-10  5.0000E-10   0.000       0.000    
   4   8.0000E-10  5.0000E-10  1.0000E-10  1.0000E-10  1.0000E-10  1.0000E-10  1.0000E-10  1.0000E-10  2.0000E-10   0.000    
   5   8.0000E-10  5.0000E-10  1.0000E-10  1.0000E-10  1.0000E-10  1.0000E-10  1.0000E-10  1.0000E-10  1.0000E-10  1.0000E-10
   6   8.0000E-10  5.0000E-10  5.0000E-10  2.0000E-10  2.0000E-10  1.0000E-10  1.0000E-10  1.0000E-10  1.0000E-10  5.0000E-10
   7   8.0000E-10  5.0000E-10  5.0000E-10  2.0000E-10  2.0000E-10  1.0000E-10  1.0000E-10  2.0000E-10  2.0000E-10   0.000    
   8    0.000      5.0000E-10  5.0000E-10  2.0000E-10  2.0000E-10  1.0000E-10  1.0000E-10  2.0000E-10  5.0000E-10   0.000    
   9    0.000      5.0000E-10  5.0000E-10  2.0000E-10  2.0000E-10  1.0000E-10  1.0000E-10  2.0000E-10  5.0000E-10   0.000    
  10    0.000      5.0000E-10  5.0000E-10  2.0000E-10  2.0000E-10  1.0000E-10  1.0000E-10  2.0000E-10  5.0000E-10  8.0000E-10
  11    0.000      1.0000E-10  1.0000E-10  1.0000E-10  1.0000E-10  1.0000E-10  1.0000E-10  2.0000E-10  5.0000E-10   0.000    
  12   1.0000E-10  1.0000E-10  1.0000E-10  1.0000E-10  1.0000E-10  1.0000E-10  1.0000E-10  1.0000E-10  2.0000E-10   0.000    
  13   1.0000E-10  1.0000E-10  2.0000E-10  2.0000E-10  2.0000E-10  2.0000E-10  2.0000E-10  1.0000E-10  1.0000E-10   0.000    
  14    0.000      2.0000E-10  5.0000E-10  5.0000E-10  5.0000E-10  5.0000E-10  5.0000E-10  2.0000E-10  1.0000E-10   0.000    
  15    0.000       0.000      8.0000E-10  8.0000E-10  8.0000E-10  8.0000E-10   0.000       0.000       0.000       0.000    

                  ET RATE =  5.000000E-10

 USING ET EXTINCTION DEPTH FROM PREVIOUS STRESS PERIOD. CURRENT PERIOD IS:       2

 USING EXTINCTION WATER CONTENT FROM PREVIOUS STRESS PERIOD. CURRENT PERIOD IS:       2

 USING AIR ENTRY PRESSURE FROM PREVIOUS STRESS PERIOD. CURRENT PERIOD IS:       2

 USING ROOT PRESSURE HEAD FROM PREVIOUS STRESS PERIOD. CURRENT PERIOD IS:       2

 USING ROOT ACTIVITY FROM PREVIOUS STRESS PERIOD. CURRENT PERIOD IS:       2

 PROCESSING AG STRESS PERIOD DATA

 READING AG STRESS PERIOD DATA

 READING IRRIGATION SEGMENT

 READING IRRIGATION WELL

 READING SUPPLEMENTAL WELL

 NO IRRPOND OR REUSING IRRPOND DATA FROM LAST STRESS PERIOD

 END PROCESSING AG STRESS PERIOD DATA OPTIONS
 
 SOLVING FOR HEAD 
                                                   Max.-Head-Change                         Max.-Flux-Residual
  Residual-Control   Outer-Iter.   Inner-Iter.     Column Row Layer    Maximum-Head-Change  Column Row Layer    Maximum-Flux-Residual          L2-NORM 
          0                 1           2             4   13     1       0.4516090521E-02       4   13    1         0.2587981320E+00      0.5589996200E+00
          0                 2           2             4   13     1      -0.4346343863E-03       4   13    1        -0.2560894401E-01      0.5485536502E-01
          0                 3           1             4   13     1       0.2895109903E-04       4   13    1         0.1753708056E-02      0.3737779858E-02

    ------------------------------------------------
       NWT REQUIRED            3 OUTER ITERATIONS 
       AND A TOTAL OF          5 INNER ITERATIONS.
    ------------------------------------------------

 OUTPUT CONTROL FOR STRESS PERIOD    2   TIME STEP    1
    PRINT BUDGET
    PRINT HEAD FOR ALL LAYERS
    SAVE BUDGET
 UBDSV1 SAVING "         STORAGE" ON UNIT 102 AT TIME STEP 1, STRESS PERIOD2
 UBDSV2 SAVING "   CONSTANT HEAD" ON UNIT 102 AT TIME STEP 1, STRESS PERIOD 2
 UBDSV1 SAVING "FLOW RIGHT FACE " ON UNIT 102 AT TIME STEP 1, STRESS PERIOD2
 UBDSV1 SAVING "FLOW FRONT FACE " ON UNIT 102 AT TIME STEP 1, STRESS PERIOD2

  HEAD DEP BOUNDS   PERIOD    2   STEP     1
 BOUNDARY      1   LAYER   1   ROW    13   COL     1   RATE   -0.287146    
 BOUNDARY      2   LAYER   1   ROW    14   COL     9   RATE    0.285621    



 STREAM LISTING     PERIOD      2   STEP        1

 LAYER ROW COL. STREAM  RCH.  FLOW INTO     FLOW TO   FLOW OUT OF   OVRLND.     DIRECT     STREAM       STREAM     STREAM     STREAM   STREAMBED  STREAMBED
                SEG.NO.  NO.  STRM. RCH.    AQUIFER    STRM. RCH.    RUNOFF     PRECIP       ET          HEAD       DEPTH      WIDTH   CONDCTNC.   GRADIENT

   1    1    1     1     1    1.6500E+01  1.9759E-01   1.6302E+01  0.000E+00  0.000E+00  0.000E+00  1.09409E+03  1.039E+00  1.087E+01  4.893E-02  1.346E+00
   1    2    2     1     2    1.6302E+01  3.0466E-01   1.5998E+01  0.000E+00  0.000E+00  0.000E+00  1.08909E+03  1.034E+00  1.079E+01  7.552E-02  1.345E+00
   1    3    3     1     3    1.5998E+01  2.5853E-01   1.5739E+01  0.000E+00  0.000E+00  0.000E+00  1.08345E+03  1.029E+00  1.070E+01  6.417E-02  1.343E+00
   1    3    4     1     4    1.5739E+01  2.3700E-01   1.5502E+01  0.000E+00  0.000E+00  0.000E+00  1.07843E+03  1.024E+00  1.061E+01  5.889E-02  1.341E+00
   1    4    5     2     1    1.3502E+01  2.9865E-01   1.3204E+01  0.000E+00  0.000E+00  0.000E+00  1.07276E+03  8.289E-01  1.200E+01  7.800E-02  1.276E+00
   1    5    6     2     2    1.3204E+01  2.2914E-01   1.2974E+01  0.000E+00  0.000E+00  0.000E+00  1.06733E+03  8.190E-01  1.200E+01  6.000E-02  1.273E+00
   1    6    6     2     3    1.2974E+01  2.2862E-01   1.2746E+01  0.000E+00  0.000E+00  0.000E+00  1.06260E+03  8.104E-01  1.200E+01  6.000E-02  1.270E+00
   1    7    6     2     4    1.2746E+01  2.2810E-01   1.2518E+01  0.000E+00  0.000E+00  0.000E+00  1.05788E+03  8.017E-01  1.200E+01  6.000E-02  1.267E+00
   1    8    6     2     5    1.2518E+01  2.2758E-01   1.2290E+01  0.000E+00  0.000E+00  0.000E+00  1.05315E+03  7.930E-01  1.200E+01  6.000E-02  1.264E+00
   1    3    5     3     1    2.0000E+00  2.8252E-01   1.7175E+00  0.000E+00  0.000E+00  0.000E+00  1.07555E+03  1.909E+00  9.636E+00  7.227E-02  1.955E+00
   1    3    6     3     2    1.7175E+00  2.4905E-01   1.4684E+00  0.000E+00  0.000E+00  0.000E+00  1.07264E+03  1.727E+00  8.909E+00  6.682E-02  1.864E+00
   1    3    7     3     3    1.4684E+00  1.9718E-01   1.2712E+00  0.000E+00  0.000E+00  0.000E+00  1.06987E+03  1.555E+00  8.218E+00  5.547E-02  1.777E+00
   1    4    8     3     4    1.2712E+00  2.2567E-01   1.0456E+00  0.000E+00  0.000E+00  0.000E+00  1.06682E+03  1.364E+00  7.455E+00  6.709E-02  1.682E+00
   1    5    8     3     5    1.0456E+00  1.5790E-01   8.8768E-01  0.000E+00  0.000E+00  0.000E+00  1.06362E+03  1.164E+00  6.655E+00  4.991E-02  1.582E+00
   1    6    8     3     6    8.8768E-01  5.5980E-02   8.3170E-01  0.000E+00  0.000E+00  0.000E+00  1.06158E+03  1.036E+00  6.145E+00  1.844E-02  1.518E+00
   1    5   10     4     1    1.0000E+01  9.0919E-02   9.9091E+00  0.000E+00  0.000E+00  0.000E+00  1.07836E+03  6.368E-01  1.000E+01  2.500E-02  1.212E+00
   1    5    9     4     2    9.9091E+00  1.8158E-01   9.7275E+00  0.000E+00  0.000E+00  0.000E+00  1.07154E+03  6.315E-01  1.000E+01  5.000E-02  1.211E+00
   1    6    8     4     3    9.7275E+00  1.2689E-01   9.6006E+00  0.000E+00  0.000E+00  0.000E+00  1.06381E+03  6.256E-01  1.000E+01  3.500E-02  1.209E+00
   1    6    8     5     1    1.0432E+01  2.2686E-01   1.0205E+01  0.000E+00  0.000E+00  0.000E+00  1.05868E+03  6.790E-01  1.542E+01  6.166E-02  1.226E+00
   1    7    7     5     2    1.0205E+01  2.7894E-01   9.9265E+00  0.000E+00  0.000E+00  0.000E+00  1.05417E+03  6.732E-01  1.519E+01  7.594E-02  1.224E+00
   1    8    7     5     3    9.9265E+00  1.9221E-01   9.7343E+00  0.000E+00  0.000E+00  0.000E+00  1.04992E+03  6.676E-01  1.497E+01  5.241E-02  1.223E+00
   1    8    6     5     4    9.7343E+00  1.3577E-01   9.5985E+00  0.000E+00  0.000E+00  0.000E+00  1.04691E+03  6.637E-01  1.482E+01  3.706E-02  1.221E+00
   1    9    6     6     1    2.1889E+01  2.4742E-01   2.1641E+01  0.000E+00  0.000E+00  0.000E+00  1.04385E+03  1.124E+00  1.200E+01  6.000E-02  1.375E+00
   1   10    7     6     2    2.1641E+01  2.4696E-01   2.1394E+01  0.000E+00  0.000E+00  0.000E+00  1.03930E+03  1.116E+00  1.200E+01  6.000E-02  1.372E+00
   1   11    7     6     3    2.1394E+01  2.4650E-01   2.1148E+01  0.000E+00  0.000E+00  0.000E+00  1.03474E+03  1.108E+00  1.200E+01  6.000E-02  1.369E+00
   1   12    7     6     4    2.1148E+01  2.4603E-01   2.0902E+01  0.000E+00  0.000E+00  0.000E+00  1.03019E+03  1.101E+00  1.200E+01  6.000E-02  1.367E+00
   1   13    7     6     5    2.0902E+01 -1.0396E-02   2.0912E+01  0.000E+00  0.000E+00  0.000E+00  1.02701E+03  1.097E+00  1.200E+01  2.400E-01 -1.444E-02
   1   14    9     7     1    1.5000E+02  1.3338E+00   1.4867E+02  0.000E+00  0.000E+00  0.000E+00  1.03987E+03  2.288E+00  5.529E+01  5.593E-01  7.949E-01
   1   13    8     7     2    1.4867E+02  1.8355E+00   1.4683E+02  0.000E+00  0.000E+00  0.000E+00  1.03478E+03  2.279E+00  5.526E+01  6.148E-01  9.952E-01
   1   13    7     7     3    1.4683E+02  1.4746E+00   1.4536E+02  0.000E+00  0.000E+00  0.000E+00  1.02969E+03  2.270E+00  5.522E+01  5.585E-01  8.802E-01
   1   13    6     8     1    1.6627E+02  8.8653E-01   1.6538E+02  0.000E+00  0.000E+00  0.000E+00  1.02480E+03  2.925E+00  4.241E+01  4.322E-01  6.838E-01
   1   13    5     8     2    1.6538E+02  1.3805E-01   1.6524E+02  0.000E+00  0.000E+00  0.000E+00  1.01855E+03  2.921E+00  4.236E+01  4.317E-01  1.066E-01
   1   13    4     8     3    1.6524E+02 -2.4329E+00   1.6768E+02  0.000E+00  0.000E+00  0.000E+00  1.01230E+03  2.929E+00  4.247E+01  4.328E+00 -1.874E-01
   1   13    3     8     4    1.6768E+02 -3.5424E+00   1.7122E+02  0.000E+00  0.000E+00  0.000E+00  1.00607E+03  2.949E+00  4.275E+01  4.357E+00 -2.710E-01
   1   13    2     8     5    1.7122E+02 -2.3687E+00   1.7359E+02  0.000E+00  0.000E+00  0.000E+00  9.99843E+02  2.968E+00  4.303E+01  4.385E+00 -1.800E-01
   1   13    1     8     6    1.7359E+02 -1.8506E+00   1.7544E+02  0.000E+00  0.000E+00  0.000E+00  9.94856E+02  2.981E+00  4.323E+01  2.643E+00 -2.334E-01
   1    8    6     9     1    0.0000E+00  0.0000E+00   0.0000E+00  0.000E+00  0.000E+00  0.000E+00  1.07875E+03  0.000E+00  4.000E+00  0.000E+00  1.000E+00
   1    8    5     9     2    0.0000E+00  0.0000E+00   0.0000E+00  0.000E+00  0.000E+00  0.000E+00  1.07825E+03  0.000E+00  4.000E+00  0.000E+00  1.000E+00



 UBDSV3 SAVING "           GW ET" ON UNIT  61 AT TIME STEP 1, STRESS PERIOD 2
 UBDSV3 SAVING "    UZF RECHARGE" ON UNIT  61 AT TIME STEP 1, STRESS PERIOD 2
 UBDSV3 SAVING " SURFACE LEAKAGE" ON UNIT  61 AT TIME STEP 1, STRESS PERIOD 2
 UBDSV3 SAVING "       HORT+DUNN" ON UNIT  61 AT TIME STEP 1, STRESS PERIOD 2
 UBDSV3 SAVING "  STORAGE CHANGE" ON UNIT  61 AT TIME STEP 1, STRESS PERIOD 2


UNSATURATED ZONE PACKAGE VOLUMETRIC BUDGET FOR  TIME STEP     1 STRESS PERIOD    2
  ------------------------------------------------------------------------------



     CUMULATIVE VOLUMES      L**3       RATES FOR THIS TIME STEP      L**3/T
     ------------------                 ------------------------

           IN:                                      IN:
           ---                                      ---
        INFILTRATION =      147521.4958          INFILTRATION =           0.8475

          OUT:                                     OUT:
          ----                                     ----
              UZF ET =       65735.6246                UZF ET =           0.7498
        UZF RECHARGE =       73224.0000          UZF RECHARGE =       0.0000E+00

            IN - OUT =        8561.8711              IN - OUT =       9.7664E-02

          STORAGE:                                 STORAGE:
          --------                                 --------
      STORAGE CHANGE =        8561.8722        STORAGE CHANGE =       9.7664E-02

 PERCENT DISCREPANCY IS DIFFERENCE BETWEEN IN-OUT MINUS CHANGE IN STORAGE
 DIVIDED BY THE AVERAGE OF IN AND OUT TIMES 100

 PERCENT DISCREPANCY =           0.00     PERCENT DISCREPANCY =           0.00






 

            AG WELLS      PERIOD    2   STEP   1
 AG WELL      1   LAYER   1   ROW     6   COL     4   RATE     0.00000    
 AG WELL      2   LAYER   1   ROW     6   COL     5   RATE     0.00000    
 AG WELL      3   LAYER   1   ROW     7   COL     4   RATE     0.00000    
 AG WELL      4   LAYER   1   ROW     7   COL     5   RATE     0.00000    
 AG WELL      5   LAYER   1   ROW     8   COL     4   RATE     0.00000    
 AG WELL      6   LAYER   1   ROW     8   COL     5   RATE     0.00000    
 
 

   DIVERSION SEGMENTS     PERIOD    2   STEP   1
 
 

        SW IRRIGATION     PERIOD    2   STEP   1
 
 

        GW IRRIGATION     PERIOD    2   STEP   1
 
1
  VOLUMETRIC BUDGET FOR AGRICULTURAL FIELDS AT  END OF TIME STEP    1, STRESS PERIOD   2
  ------------------------------------------------------------------------------

     CUMULATIVE VOLUMES      L**3       RATES FOR THIS TIME STEP      L**3/T
     ------------------                 ------------------------

           IN:                                      IN:
           ---                                      ---
               AG WELLS  =           0.0000                 AG WELLS  =           0.0000
      DIVERSION SEGMENTS =           0.0000        DIVERSION SEGMENTS =           0.0000
       IRRIGATION PONDS  =           0.0000         IRRIGATION PONDS  =           0.0000
           GW IRRIGATION =           0.0000             GW IRRIGATION =           0.0000
           SW IRRIGATION =           0.0000             SW IRRIGATION =           0.0000
        SYSTEM LOSSES GW =           0.0000          SYSTEM LOSSES GW =           0.0000
        SYSTEM LOSSES SW =           0.0000          SYSTEM LOSSES SW =           0.0000

                TOTAL IN =           0.0000                  TOTAL IN =           0.0000

          OUT:                                     OUT:
          ----                                     ----
               AG WELLS  =           0.0000                 AG WELLS  =           0.0000
      DIVERSION SEGMENTS =           0.0000        DIVERSION SEGMENTS =           0.0000
       IRRIGATION PONDS  =           0.0000         IRRIGATION PONDS  =           0.0000
           GW IRRIGATION =           0.0000             GW IRRIGATION =           0.0000
           SW IRRIGATION =           0.0000             SW IRRIGATION =           0.0000
        SYSTEM LOSSES GW =           0.0000          SYSTEM LOSSES GW =           0.0000
        SYSTEM LOSSES SW =           0.0000          SYSTEM LOSSES SW =           0.0000

               TOTAL OUT =           0.0000                 TOTAL OUT =           0.0000

                IN - OUT =           0.0000                  IN - OUT =           0.0000

     PERCENT DISCREPANCY =           0.00         PERCENT DISCREPANCY =           0.00



1
              HEAD IN LAYER 1 AT END OF TIME STEP 1 IN STRESS PERIOD 2
  ---------------------------------------------------------------------------

           1       2       3       4       5       6       7       8       9      10
 ...................................................................................
   1  1032.36 1031.32 6999.00 6999.00 6999.00 6999.00 6999.00 6999.00 6999.00 6999.00
   2  1031.40 1030.17 1029.58 6999.00 6999.00 1030.68 1030.83 1030.79 6999.00 6999.00
   3  6999.00 1029.27 1028.96 1028.74 1029.28 1029.91 1030.40 1030.37 6999.00 6999.00
   4  1028.57 1028.53 1028.35 1028.17 1028.24 1028.30 1028.78 1029.83 1029.56 6999.00
   5  1028.13 1027.76 1027.59 1027.51 1027.61 1027.82 1027.99 1028.47 1029.10 1029.63
   6  1027.57 1027.02 1026.83 1026.81 1026.93 1027.26 1027.55 1028.08 1028.52 1029.45
   7  1027.07 1026.08 1025.92 1025.96 1026.14 1026.55 1026.98 1027.45 1027.96 6999.00
   8  6999.00 1024.71 1024.75 1024.91 1025.15 1025.65 1026.08 1026.80 1027.36 6999.00
   9  6999.00 1022.70 1023.03 1023.48 1023.88 1024.53 1025.05 1025.79 1026.91 6999.00
  10  6999.00 1019.87 1020.64 1021.69 1022.47 1023.49 1024.39 1025.46 1027.07 1027.71
  11  6999.00 1015.35 1016.78 1019.32 1020.96 1022.69 1024.22 1026.00 1028.19 6999.00
  12  1001.91 1007.94 1012.08 1016.04 1019.32 1022.30 1024.79 1028.19 1031.18 6999.00
  13   995.56 1000.38 1006.89 1012.87 1018.23 1022.75 1027.05 1031.79 1034.63 6999.00
  14  6999.00 1005.79 1008.88 1013.53 1018.29 1022.70 1027.60 1033.07 1037.48 6999.00
  15  6999.00 6999.00 1012.52 1015.24 1018.71 1021.73 6999.00 6999.00 6999.00 6999.00
1
  VOLUMETRIC BUDGET FOR ENTIRE MODEL AT END OF TIME STEP    1, STRESS PERIOD   2
  ------------------------------------------------------------------------------

     CUMULATIVE VOLUMES      L**3       RATES FOR THIS TIME STEP      L**3/T
     ------------------                 ------------------------

           IN:                                      IN:
           ---                                      ---
             STORAGE     =       66736.4922               STORAGE     =           0.7613
       CONSTANT HEAD     =           0.0000         CONSTANT HEAD     =           0.0000
     HEAD DEP BOUNDS     =       49716.9844       HEAD DEP BOUNDS     =           0.2856
      STREAM LEAKAGE     =     1877049.7500        STREAM LEAKAGE     =          11.2667
        UZF RECHARGE     =       73223.9531          UZF RECHARGE     =           0.0000
               GW ET     =           0.0000                 GW ET     =           0.0000
     SURFACE LEAKAGE     =           0.0000       SURFACE LEAKAGE     =           0.0000
           AG WELLS      =           0.0000             AG WELLS      =           0.0000

                TOTAL IN =     2066727.2500                  TOTAL IN =          12.3136

          OUT:                                     OUT:
          ----                                     ----
             STORAGE     =      159711.2812               STORAGE     =           1.8218
       CONSTANT HEAD     =           0.0000         CONSTANT HEAD     =           0.0000
     HEAD DEP BOUNDS     =       49975.0312       HEAD DEP BOUNDS     =           0.2871
      STREAM LEAKAGE     =     1857066.8750        STREAM LEAKAGE     =          10.2049
        UZF RECHARGE     =           0.0000          UZF RECHARGE     =           0.0000
               GW ET     =           0.0000                 GW ET     =           0.0000
     SURFACE LEAKAGE     =           0.0000       SURFACE LEAKAGE     =           0.0000
           AG WELLS      =           0.0000             AG WELLS      =           0.0000

               TOTAL OUT =     2066753.2500                 TOTAL OUT =          12.3139

                IN - OUT =         -26.0000                  IN - OUT =      -2.9755E-04

     PERCENT DISCREPANCY =          -0.00         PERCENT DISCREPANCY =          -0.00






         TIME SUMMARY AT END OF TIME STEP    1 IN STRESS PERIOD    2
                    SECONDS     MINUTES      HOURS       DAYS        YEARS
                    -----------------------------------------------------------
   TIME STEP LENGTH  87667.      1461.1      24.352      1.0147     2.77799E-03
 STRESS PERIOD TIME  87667.      1461.1      24.352      1.0147     2.77799E-03
         TOTAL TIME 1.74067E+05  2901.1      48.352      2.0147     5.51584E-03
1
 
 SOLVING FOR HEAD 
                                                   Max.-Head-Change                         Max.-Flux-Residual
  Residual-Control   Outer-Iter.   Inner-Iter.     Column Row Layer    Maximum-Head-Change  Column Row Layer    Maximum-Flux-Residual          L2-NORM 
          0                 1           2             2   13     1       0.4141604067E-02       4   13    1         0.2347421644E+00      0.5289478646E+00
          0                 2           2             4   13     1      -0.3943921141E-03       4   13    1        -0.2322508993E-01      0.5195277974E-01
          0                 3           1             4   13     1       0.2644842864E-04       4   13    1         0.1601340582E-02      0.3548358795E-02

    ------------------------------------------------
       NWT REQUIRED            3 OUTER ITERATIONS 
       AND A TOTAL OF          5 INNER ITERATIONS.
    ------------------------------------------------

 NO OUTPUT CONTROL FOR STRESS PERIOD    2   TIME STEP    2
 
 SOLVING FOR HEAD 
                                                   Max.-Head-Change                         Max.-Flux-Residual
  Residual-Control   Outer-Iter.   Inner-Iter.     Column Row Layer    Maximum-Head-Change  Column Row Layer    Maximum-Flux-Residual          L2-NORM 
          0                 1           2             2   13     1       0.3838451722E-02       2   13    1         0.2157898443E+00      0.5018947223E+00
          0                 2           2             4   13     1      -0.3580860464E-03       4   13    1        -0.2107510957E-01      0.4934276730E-01
          0                 3           1             4   13     1       0.2403484716E-04       4   13    1         0.1454379058E-02      0.3375977545E-02

    ------------------------------------------------
       NWT REQUIRED            3 OUTER ITERATIONS 
       AND A TOTAL OF          5 INNER ITERATIONS.
    ------------------------------------------------

 NO OUTPUT CONTROL FOR STRESS PERIOD    2   TIME STEP    3
 
 SOLVING FOR HEAD 
                                                   Max.-Head-Change                         Max.-Flux-Residual
  Residual-Control   Outer-Iter.   Inner-Iter.     Column Row Layer    Maximum-Head-Change  Column Row Layer    Maximum-Flux-Residual          L2-NORM 
          0                 1           2             2   13     1       0.3557559587E-02       2   13    1         0.1999768401E+00      0.4775469808E+00
          0                 2           2             2   13     1      -0.3313317856E-03       2   13    1        -0.1914529669E-01      0.4698879784E-01
          0                 3           1             4   13     1       0.2180721347E-04       4   13    1         0.1318793073E-02      0.3217700760E-02

    ------------------------------------------------
       NWT REQUIRED            3 OUTER ITERATIONS 
       AND A TOTAL OF          5 INNER ITERATIONS.
    ------------------------------------------------

 NO OUTPUT CONTROL FOR STRESS PERIOD    2   TIME STEP    4
 
 SOLVING FOR HEAD 
                                                   Max.-Head-Change                         Max.-Flux-Residual
  Residual-Control   Outer-Iter.   Inner-Iter.     Column Row Layer    Maximum-Head-Change  Column Row Layer    Maximum-Flux-Residual          L2-NORM 
          0                 1           2             2   13     1       0.3297604685E-02       2   13    1         0.1853435845E+00      0.4556415430E+00
          0                 2           2             2    2     1      -0.3075700726E-03       2   13    1        -0.1774964558E-01      0.4487548817E-01
          0                 3           1             2    2     1       0.2094437751E-04       4   13    1         0.1198174047E-02      0.3076929403E-02

    ------------------------------------------------
       NWT REQUIRED            3 OUTER ITERATIONS 
       AND A TOTAL OF          5 INNER ITERATIONS.
    ------------------------------------------------

 NO OUTPUT CONTROL FOR STRESS PERIOD    2   TIME STEP    5
 
 SOLVING FOR HEAD 
                                                   Max.-Head-Change                         Max.-Flux-Residual
  Residual-Control   Outer-Iter.   Inner-Iter.     Column Row Layer    Maximum-Head-Change  Column Row Layer    Maximum-Flux-Residual          L2-NORM 
          0                 1           2             2    2     1       0.3137740412E-02       2   13    1         0.1717992485E+00      0.4359362745E+00
          0                 2           2             2    2     1      -0.3052170142E-03       2   13    1        -0.1645865069E-01      0.4297630026E-01
          0                 3           1             2    2     1       0.2078414308E-04       2    2    1         0.1148336413E-02      0.2950597531E-02

    ------------------------------------------------
       NWT REQUIRED            3 OUTER ITERATIONS 
       AND A TOTAL OF          5 INNER ITERATIONS.
    ------------------------------------------------

 NO OUTPUT CONTROL FOR STRESS PERIOD    2   TIME STEP    6
 
 SOLVING FOR HEAD 
                                                   Max.-Head-Change                         Max.-Flux-Residual
  Residual-Control   Outer-Iter.   Inner-Iter.     Column Row Layer    Maximum-Head-Change  Column Row Layer    Maximum-Flux-Residual          L2-NORM 
          0                 1           2             2    2     1       0.3113901219E-02       2    2    1         0.1627934591E+00      0.4182063023E+00
          0                 2           2             2    2     1      -0.3028981017E-03       2    2    1        -0.1627937418E-01      0.4126813743E-01
          0                 3           1             2    2     1       0.2062623349E-04       2    2    1         0.1139556415E-02      0.2837809020E-02

    ------------------------------------------------
       NWT REQUIRED            3 OUTER ITERATIONS 
       AND A TOTAL OF          5 INNER ITERATIONS.
    ------------------------------------------------

 NO OUTPUT CONTROL FOR STRESS PERIOD    2   TIME STEP    7
 
 SOLVING FOR HEAD 
                                                   Max.-Head-Change                         Max.-Flux-Residual
  Residual-Control   Outer-Iter.   Inner-Iter.     Column Row Layer    Maximum-Head-Change  Column Row Layer    Maximum-Flux-Residual          L2-NORM 
          0                 1           2             2    2     1       0.3090495551E-02       2    2    1         0.1615619536E+00      0.4022459845E+00
          0                 2           2             2    2     1      -0.3006213598E-03       2    2    1        -0.1615622306E-01      0.3973071059E-01
          0                 3           1             2    2     1       0.2047119617E-04       2    2    1         0.1130935852E-02      0.2735708798E-02

    ------------------------------------------------
       NWT REQUIRED            3 OUTER ITERATIONS 
       AND A TOTAL OF          5 INNER ITERATIONS.
    ------------------------------------------------

 NO OUTPUT CONTROL FOR STRESS PERIOD    2   TIME STEP    8
 
 SOLVING FOR HEAD 
                                                   Max.-Head-Change                         Max.-Flux-Residual
  Residual-Control   Outer-Iter.   Inner-Iter.     Column Row Layer    Maximum-Head-Change  Column Row Layer    Maximum-Flux-Residual          L2-NORM 
          0                 1           2             2    2     1       0.3067343233E-02       2    2    1         0.1603438620E+00      0.3878711226E+00
          0                 2           2             2    2     1      -0.2983692623E-03       2    2    1        -0.1603441335E-01      0.3834542087E-01
          0                 3           1             2    2     1       0.2031783686E-04       2    2    1         0.1122409173E-02      0.2642671797E-02

    ------------------------------------------------
       NWT REQUIRED            3 OUTER ITERATIONS 
       AND A TOTAL OF          5 INNER ITERATIONS.
    ------------------------------------------------

 NO OUTPUT CONTROL FOR STRESS PERIOD    2   TIME STEP    9
 
 SOLVING FOR HEAD 
                                                   Max.-Head-Change                         Max.-Flux-Residual
  Residual-Control   Outer-Iter.   Inner-Iter.     Column Row Layer    Maximum-Head-Change  Column Row Layer    Maximum-Flux-Residual          L2-NORM 
          0                 1           2             2    2     1       0.3044526459E-02       2    2    1         0.1591434383E+00      0.3749194505E+00
          0                 2           2             2    2     1      -0.2961498038E-03       2    2    1        -0.1591437041E-01      0.3709815521E-01
          0                 3           1             2    2     1       0.2016669991E-04       2    2    1         0.1114006163E-02      0.2560264876E-02

    ------------------------------------------------
       NWT REQUIRED            3 OUTER ITERATIONS 
       AND A TOTAL OF          5 INNER ITERATIONS.
    ------------------------------------------------

 NO OUTPUT CONTROL FOR STRESS PERIOD    2   TIME STEP   10
 
 SOLVING FOR HEAD 
                                                   Max.-Head-Change                         Max.-Flux-Residual
  Residual-Control   Outer-Iter.   Inner-Iter.     Column Row Layer    Maximum-Head-Change  Column Row Layer    Maximum-Flux-Residual          L2-NORM 
          0                 1           2             2    2     1       0.3021953028E-02       2    2    1         0.1579558800E+00      0.3632348403E+00
          0                 2           2             2    2     1      -0.2939540159E-03       2    2    1        -0.1579561404E-01      0.3597264143E-01
          0                 3           1             2    2     1       0.2001717447E-04       2    2    1         0.1105693200E-02      0.2485321935E-02

    ------------------------------------------------
       NWT REQUIRED            3 OUTER ITERATIONS 
       AND A TOTAL OF          5 INNER ITERATIONS.
    ------------------------------------------------

 NO OUTPUT CONTROL FOR STRESS PERIOD    2   TIME STEP   11
 
 SOLVING FOR HEAD 
                                                   Max.-Head-Change                         Max.-Flux-Residual
  Residual-Control   Outer-Iter.   Inner-Iter.     Column Row Layer    Maximum-Head-Change  Column Row Layer    Maximum-Flux-Residual          L2-NORM 
          0                 1           2             2    2     1       0.2999790039E-02       2    2    1         0.1567898805E+00      0.3526755102E+00
          0                 2           2             2    2     1      -0.2917981541E-03       2    2    1        -0.1567901358E-01      0.3495648231E-01
          0                 3           1             2    2     1       0.1987036864E-04       2    2    1         0.1097531184E-02      0.2417810200E-02

    ------------------------------------------------
       NWT REQUIRED            3 OUTER ITERATIONS 
       AND A TOTAL OF          5 INNER ITERATIONS.
    ------------------------------------------------

 NO OUTPUT CONTROL FOR STRESS PERIOD    2   TIME STEP   12
 
 SOLVING FOR HEAD 
                                                   Max.-Head-Change                         Max.-Flux-Residual
  Residual-Control   Outer-Iter.   Inner-Iter.     Column Row Layer    Maximum-Head-Change  Column Row Layer    Maximum-Flux-Residual          L2-NORM 
          0                 1           2             2    2     1       0.2977861985E-02       2    2    1         0.1556363428E+00      0.3431290732E+00
          0                 2           2             2    2     1      -0.2896651447E-03       2    2    1        -0.1556365931E-01      0.3403420194E-01
          0                 3           1             2    2     1       0.1972511894E-04       2    2    1         0.1089456382E-02      0.2356634596E-02

    ------------------------------------------------
       NWT REQUIRED            3 OUTER ITERATIONS 
       AND A TOTAL OF          5 INNER ITERATIONS.
    ------------------------------------------------

 NO OUTPUT CONTROL FOR STRESS PERIOD    2   TIME STEP   13
 
 SOLVING FOR HEAD 
                                                   Max.-Head-Change                         Max.-Flux-Residual
  Residual-Control   Outer-Iter.   Inner-Iter.     Column Row Layer    Maximum-Head-Change  Column Row Layer    Maximum-Flux-Residual          L2-NORM 
          0                 1           2             2    2     1       0.2956249451E-02       2    2    1         0.1544993958E+00      0.3344812589E+00
          0                 2           2             2    2     1      -0.2875628271E-03       2    2    1        -0.1544996412E-01      0.3320172279E-01
          0                 3           1             2    2     1       0.1958195883E-04       2    2    1         0.1081497722E-02      0.2301493628E-02

    ------------------------------------------------
       NWT REQUIRED            3 OUTER ITERATIONS 
       AND A TOTAL OF          5 INNER ITERATIONS.
    ------------------------------------------------

 NO OUTPUT CONTROL FOR STRESS PERIOD    2   TIME STEP   14
 
 SOLVING FOR HEAD 
                                                   Max.-Head-Change                         Max.-Flux-Residual
  Residual-Control   Outer-Iter.   Inner-Iter.     Column Row Layer    Maximum-Head-Change  Column Row Layer    Maximum-Flux-Residual          L2-NORM 
          0                 1           2             2    2     1       0.2934946924E-02       2    2    1         0.1533788083E+00      0.3266290391E+00
          0                 2           2             2    2     1      -0.2854906645E-03       2    2    1        -0.1533790486E-01      0.3244578659E-01
          0                 3           1             2    2     1       0.1944085210E-04       2    2    1         0.1073653580E-02      0.2253271663E-02

    ------------------------------------------------
       NWT REQUIRED            3 OUTER ITERATIONS 
       AND A TOTAL OF          5 INNER ITERATIONS.
    ------------------------------------------------

 NO OUTPUT CONTROL FOR STRESS PERIOD    2   TIME STEP   15
 
 SOLVING FOR HEAD 
                                                   Max.-Head-Change                         Max.-Flux-Residual
  Residual-Control   Outer-Iter.   Inner-Iter.     Column Row Layer    Maximum-Head-Change  Column Row Layer    Maximum-Flux-Residual          L2-NORM 
          0                 1           2             2    2     1       0.2913949701E-02       2    2    1         0.1522742942E+00      0.3194883970E+00
          0                 2           2             2    2     1      -0.2834482001E-03       2    2    1        -0.1522745299E-01      0.3175458754E-01
          0                 3           1             2    2     1       0.1930176821E-04       2    2    1         0.1065921939E-02      0.2202108134E-02

    ------------------------------------------------
       NWT REQUIRED            3 OUTER ITERATIONS 
       AND A TOTAL OF          5 INNER ITERATIONS.
    ------------------------------------------------

 NO OUTPUT CONTROL FOR STRESS PERIOD    2   TIME STEP   16
 
 SOLVING FOR HEAD 
                                                   Max.-Head-Change                         Max.-Flux-Residual
  Residual-Control   Outer-Iter.   Inner-Iter.     Column Row Layer    Maximum-Head-Change  Column Row Layer    Maximum-Flux-Residual          L2-NORM 
          0                 1           2             2    2     1       0.2893252802E-02       2    2    1         0.1511856099E+00      0.3129773638E+00
          0                 2           2             2    2     1      -0.2814349494E-03       2    2    1        -0.1511858410E-01      0.3112425761E-01
          0                 3           1             2    2     1       0.1916467332E-04       2    2    1         0.1058301126E-02      0.2162372807E-02

    ------------------------------------------------
       NWT REQUIRED            3 OUTER ITERATIONS 
       AND A TOTAL OF          5 INNER ITERATIONS.
    ------------------------------------------------

 NO OUTPUT CONTROL FOR STRESS PERIOD    2   TIME STEP   17
 
 SOLVING FOR HEAD 
                                                   Max.-Head-Change                         Max.-Flux-Residual
  Residual-Control   Outer-Iter.   Inner-Iter.     Column Row Layer    Maximum-Head-Change  Column Row Layer    Maximum-Flux-Residual          L2-NORM 
          0                 1           2             2    2     1       0.2872764618E-02       2    2    1         0.1501079641E+00      0.3070291294E+00
          0                 2           2             2    2     1      -0.2794420010E-03       2    2    1        -0.1501081909E-01      0.3054880097E-01
          0                 3           1             2    2     1       0.1902896085E-04       2    2    1         0.1050757575E-02      0.2123802106E-02

    ------------------------------------------------
       NWT REQUIRED            3 OUTER ITERATIONS 
       AND A TOTAL OF          5 INNER ITERATIONS.
    ------------------------------------------------

 NO OUTPUT CONTROL FOR STRESS PERIOD    2   TIME STEP   18
 
 SOLVING FOR HEAD 
                                                   Max.-Head-Change                         Max.-Flux-Residual
  Residual-Control   Outer-Iter.   Inner-Iter.     Column Row Layer    Maximum-Head-Change  Column Row Layer    Maximum-Flux-Residual          L2-NORM 
          0                 1           2             2    2     1       0.2852655220E-02       2    2    1         0.1490502058E+00      0.3015797110E+00
          0                 2           2             2    2     1      -0.2774858982E-03       2    2    1        -0.1490504280E-01      0.3002118470E-01
          0                 3           1             2    2     1       0.1889575781E-04       2    2    1         0.1043353232E-02      0.2088771625E-02

    ------------------------------------------------
       NWT REQUIRED            3 OUTER ITERATIONS 
       AND A TOTAL OF          5 INNER ITERATIONS.
    ------------------------------------------------

 NO OUTPUT CONTROL FOR STRESS PERIOD    2   TIME STEP   19
 
 SOLVING FOR HEAD 
                                                   Max.-Head-Change                         Max.-Flux-Residual
  Residual-Control   Outer-Iter.   Inner-Iter.     Column Row Layer    Maximum-Head-Change  Column Row Layer    Maximum-Flux-Residual          L2-NORM 
          0                 1           2             2    2     1       0.2832744979E-02       2    2    1         0.1480030213E+00      0.2965743403E+00
          0                 2           2             2    2     1      -0.2755491682E-03       2    2    1        -0.1480032393E-01      0.2953617810E-01
          0                 3           1             2    2     1       0.1876387376E-04       2    2    1         0.1036022913E-02      0.2056254546E-02

    ------------------------------------------------
       NWT REQUIRED            3 OUTER ITERATIONS 
       AND A TOTAL OF          5 INNER ITERATIONS.
    ------------------------------------------------

 NO OUTPUT CONTROL FOR STRESS PERIOD    2   TIME STEP   20
 
 SOLVING FOR HEAD 
                                                   Max.-Head-Change                         Max.-Flux-Residual
  Residual-Control   Outer-Iter.   Inner-Iter.     Column Row Layer    Maximum-Head-Change  Column Row Layer    Maximum-Flux-Residual          L2-NORM 
          0                 1           2             2    2     1       0.2813117412E-02       2    2    1         0.1469706957E+00      0.2919606691E+00
          0                 2           2             2    2     1      -0.2736399349E-03       2    2    1        -0.1469709095E-01      0.2908721195E-01
          0                 3           1             2    2     1       0.1863386204E-04       2    2    1         0.1028796608E-02      0.2025392134E-02

    ------------------------------------------------
       NWT REQUIRED            3 OUTER ITERATIONS 
       AND A TOTAL OF          5 INNER ITERATIONS.
    ------------------------------------------------

 NO OUTPUT CONTROL FOR STRESS PERIOD    2   TIME STEP   21
 
 SOLVING FOR HEAD 
                                                   Max.-Head-Change                         Max.-Flux-Residual
  Residual-Control   Outer-Iter.   Inner-Iter.     Column Row Layer    Maximum-Head-Change  Column Row Layer    Maximum-Flux-Residual          L2-NORM 
          0                 1           2             2    2     1       0.2793767597E-02       2    2    1         0.1459530265E+00      0.2876717450E+00
          0                 2           2             2    2     1      -0.2717577197E-03       2    2    1        -0.1459532363E-01      0.2864800425E-01
          0                 3           1             2    2     1       0.1850569044E-04       2    2    1         0.1021672912E-02      0.1996967620E-02

    ------------------------------------------------
       NWT REQUIRED            3 OUTER ITERATIONS 
       AND A TOTAL OF          5 INNER ITERATIONS.
    ------------------------------------------------

 NO OUTPUT CONTROL FOR STRESS PERIOD    2   TIME STEP   22
 
 SOLVING FOR HEAD 
                                                   Max.-Head-Change                         Max.-Flux-Residual
  Residual-Control   Outer-Iter.   Inner-Iter.     Column Row Layer    Maximum-Head-Change  Column Row Layer    Maximum-Flux-Residual          L2-NORM 
          0                 1           2             2    2     1       0.2774691381E-02       2    2    1         0.1449497585E+00      0.2837507840E+00
          0                 2           2             2    2     1      -0.2699021179E-03       2    2    1        -0.1449499642E-01      0.2829013869E-01
          0                 3           1             2    2     1       0.1837933082E-04       2    2    1         0.1014650006E-02      0.1972719293E-02

    ------------------------------------------------
       NWT REQUIRED            3 OUTER ITERATIONS 
       AND A TOTAL OF          5 INNER ITERATIONS.
    ------------------------------------------------

 NO OUTPUT CONTROL FOR STRESS PERIOD    2   TIME STEP   23
 
 SOLVING FOR HEAD 
                                                   Max.-Head-Change                         Max.-Flux-Residual
  Residual-Control   Outer-Iter.   Inner-Iter.     Column Row Layer    Maximum-Head-Change  Column Row Layer    Maximum-Flux-Residual          L2-NORM 
          0                 1           2             2    2     1       0.2755889406E-02       2    2    1         0.1439609219E+00      0.2800863817E+00
          0                 2           2             2    2     1      -0.2680731924E-03       2    2    1        -0.1439611239E-01      0.2793275682E-01
          0                 3           1             2    2     1       0.1825478743E-04       2    2    1         0.1007728093E-02      0.1948629738E-02

    ------------------------------------------------
       NWT REQUIRED            3 OUTER ITERATIONS 
       AND A TOTAL OF          5 INNER ITERATIONS.
    ------------------------------------------------

 NO OUTPUT CONTROL FOR STRESS PERIOD    2   TIME STEP   24
 
 SOLVING FOR HEAD 
                                                   Max.-Head-Change                         Max.-Flux-Residual
  Residual-Control   Outer-Iter.   Inner-Iter.     Column Row Layer    Maximum-Head-Change  Column Row Layer    Maximum-Flux-Residual          L2-NORM 
          0                 1           2             2    2     1       0.2737260761E-02       2    2    1         0.1429812797E+00      0.2766706518E+00
          0                 2           2             2    2     1      -0.2662611273E-03       2    2    1        -0.1429814778E-01      0.2759995882E-01
          0                 3           1             2    2     1       0.1813139261E-04       2    2    1         0.1000870577E-02      0.1925853957E-02

    ------------------------------------------------
       NWT REQUIRED            3 OUTER ITERATIONS 
       AND A TOTAL OF          5 INNER ITERATIONS.
    ------------------------------------------------

 NO OUTPUT CONTROL FOR STRESS PERIOD    2   TIME STEP   25
 
 SOLVING FOR HEAD 
                                                   Max.-Head-Change                         Max.-Flux-Residual
  Residual-Control   Outer-Iter.   Inner-Iter.     Column Row Layer    Maximum-Head-Change  Column Row Layer    Maximum-Flux-Residual          L2-NORM 
          0                 1           2             2    2     1       0.2718980085E-02       2    2    1         0.1420199372E+00      0.2734814448E+00
          0                 2           2             2    2     1      -0.2644829109E-03       2    2    1        -0.1420201317E-01      0.2728806241E-01
          0                 3           1             2    2     1       0.1801030323E-04       2    2    1         0.9941411768E-03      0.1904250751E-02

    ------------------------------------------------
       NWT REQUIRED            3 OUTER ITERATIONS 
       AND A TOTAL OF          5 INNER ITERATIONS.
    ------------------------------------------------

 NO OUTPUT CONTROL FOR STRESS PERIOD    2   TIME STEP   26
 
 SOLVING FOR HEAD 
                                                   Max.-Head-Change                         Max.-Flux-Residual
  Residual-Control   Outer-Iter.   Inner-Iter.     Column Row Layer    Maximum-Head-Change  Column Row Layer    Maximum-Flux-Residual          L2-NORM 
          0                 1           2             2    2     1       0.2700869381E-02       2    2    1         0.1410675692E+00      0.2704895739E+00
          0                 2           2             2    2     1      -0.2627212273E-03       2    2    1        -0.1410677599E-01      0.2699573848E-01
          0                 3           1             2    2     1       0.1789033852E-04       2    2    1         0.9874745567E-03      0.1885295107E-02

    ------------------------------------------------
       NWT REQUIRED            3 OUTER ITERATIONS 
       AND A TOTAL OF          5 INNER ITERATIONS.
    ------------------------------------------------

 NO OUTPUT CONTROL FOR STRESS PERIOD    2   TIME STEP   27
 
 SOLVING FOR HEAD 
                                                   Max.-Head-Change                         Max.-Flux-Residual
  Residual-Control   Outer-Iter.   Inner-Iter.     Column Row Layer    Maximum-Head-Change  Column Row Layer    Maximum-Flux-Residual          L2-NORM 
          0                 1           2             2    2     1       0.2683012307E-02       2    2    1         0.1401285478E+00      0.2676806483E+00
          0                 2           2             2    2     1      -0.2609842159E-03       2    2    1        -0.1401287351E-01      0.2672002674E-01
          0                 3           1             2    2     1       0.1777205489E-04       2    2    1         0.9809013885E-03      0.1865495041E-02

    ------------------------------------------------
       NWT REQUIRED            3 OUTER ITERATIONS 
       AND A TOTAL OF          5 INNER ITERATIONS.
    ------------------------------------------------

 NO OUTPUT CONTROL FOR STRESS PERIOD    2   TIME STEP   28
 
 SOLVING FOR HEAD 
                                                   Max.-Head-Change                         Max.-Flux-Residual
  Residual-Control   Outer-Iter.   Inner-Iter.     Column Row Layer    Maximum-Head-Change  Column Row Layer    Maximum-Flux-Residual          L2-NORM 
          0                 1           2             2    2     1       0.2665404407E-02       2    2    1         0.1392026767E+00      0.2650364101E+00
          0                 2           2             2    2     1      -0.2592714421E-03       2    2    1        -0.1392028606E-01      0.2646096208E-01
          0                 3           1             2    2     1       0.1765542112E-04       2    2    1         0.9744202535E-03      0.1848266191E-02

    ------------------------------------------------
       NWT REQUIRED            3 OUTER ITERATIONS 
       AND A TOTAL OF          5 INNER ITERATIONS.
    ------------------------------------------------

 NO OUTPUT CONTROL FOR STRESS PERIOD    2   TIME STEP   29
 
 SOLVING FOR HEAD 
                                                   Max.-Head-Change                         Max.-Flux-Residual
  Residual-Control   Outer-Iter.   Inner-Iter.     Column Row Layer    Maximum-Head-Change  Column Row Layer    Maximum-Flux-Residual          L2-NORM 
          0                 1           2             2    2     1       0.2648042040E-02       2    2    1         0.1382897251E+00      0.2625375411E+00
          0                 2           2             2    2     1      -0.2575825525E-03       2    2    1        -0.1382899057E-01      0.2621546360E-01
          0                 3           1             2    2     1       0.1754041401E-04       2    2    1         0.9680295867E-03      0.1831743696E-02

    ------------------------------------------------
       NWT REQUIRED            3 OUTER ITERATIONS 
       AND A TOTAL OF          5 INNER ITERATIONS.
    ------------------------------------------------

 NO OUTPUT CONTROL FOR STRESS PERIOD    2   TIME STEP   30



 STREAM LISTING     PERIOD      2   STEP       30

 LAYER ROW COL. STREAM  RCH.  FLOW INTO     FLOW TO   FLOW OUT OF   OVRLND.     DIRECT     STREAM       STREAM     STREAM     STREAM   STREAMBED  STREAMBED
                SEG.NO.  NO.  STRM. RCH.    AQUIFER    STRM. RCH.    RUNOFF     PRECIP       ET          HEAD       DEPTH      WIDTH   CONDCTNC.   GRADIENT

   1    1    1     1     1    1.6500E+01  1.9759E-01   1.6302E+01  0.000E+00  0.000E+00  0.000E+00  1.09409E+03  1.039E+00  1.087E+01  4.893E-02  1.346E+00
   1    2    2     1     2    1.6302E+01  3.0466E-01   1.5998E+01  0.000E+00  0.000E+00  0.000E+00  1.08909E+03  1.034E+00  1.079E+01  7.552E-02  1.345E+00
   1    3    3     1     3    1.5998E+01  2.5853E-01   1.5739E+01  0.000E+00  0.000E+00  0.000E+00  1.08345E+03  1.029E+00  1.070E+01  6.417E-02  1.343E+00
   1    3    4     1     4    1.5739E+01  2.3700E-01   1.5502E+01  0.000E+00  0.000E+00  0.000E+00  1.07843E+03  1.024E+00  1.061E+01  5.889E-02  1.341E+00
   1    4    5     2     1    1.3502E+01  2.9865E-01   1.3204E+01  0.000E+00  0.000E+00  0.000E+00  1.07276E+03  8.289E-01  1.200E+01  7.800E-02  1.276E+00
   1    5    6     2     2    1.3204E+01  2.2914E-01   1.2974E+01  0.000E+00  0.000E+00  0.000E+00  1.06733E+03  8.190E-01  1.200E+01  6.000E-02  1.273E+00
   1    6    6     2     3    1.2974E+01  2.2862E-01   1.2746E+01  0.000E+00  0.000E+00  0.000E+00  1.06260E+03  8.104E-01  1.200E+01  6.000E-02  1.270E+00
   1    7    6     2     4    1.2746E+01  2.2810E-01   1.2518E+01  0.000E+00  0.000E+00  0.000E+00  1.05788E+03  8.017E-01  1.200E+01  6.000E-02  1.267E+00
   1    8    6     2     5    1.2518E+01  2.2758E-01   1.2290E+01  0.000E+00  0.000E+00  0.000E+00  1.05315E+03  7.930E-01  1.200E+01  6.000E-02  1.264E+00
   1    3    5     3     1    2.0000E+00  2.8252E-01   1.7175E+00  0.000E+00  0.000E+00  0.000E+00  1.07555E+03  1.909E+00  9.636E+00  7.227E-02  1.955E+00
   1    3    6     3     2    1.7175E+00  2.4905E-01   1.4684E+00  0.000E+00  0.000E+00  0.000E+00  1.07264E+03  1.727E+00  8.909E+00  6.682E-02  1.864E+00
   1    3    7     3     3    1.4684E+00  1.9718E-01   1.2712E+00  0.000E+00  0.000E+00  0.000E+00  1.06987E+03  1.555E+00  8.218E+00  5.547E-02  1.777E+00
   1    4    8     3     4    1.2712E+00  2.2567E-01   1.0456E+00  0.000E+00  0.000E+00  0.000E+00  1.06682E+03  1.364E+00  7.455E+00  6.709E-02  1.682E+00
   1    5    8     3     5    1.0456E+00  1.5790E-01   8.8768E-01  0.000E+00  0.000E+00  0.000E+00  1.06362E+03  1.164E+00  6.655E+00  4.991E-02  1.582E+00
   1    6    8     3     6    8.8768E-01  5.5980E-02   8.3170E-01  0.000E+00  0.000E+00  0.000E+00  1.06158E+03  1.036E+00  6.145E+00  1.844E-02  1.518E+00
   1    5   10     4     1    1.0000E+01  9.0919E-02   9.9091E+00  0.000E+00  0.000E+00  0.000E+00  1.07836E+03  6.368E-01  1.000E+01  2.500E-02  1.212E+00
   1    5    9     4     2    9.9091E+00  1.8158E-01   9.7275E+00  0.000E+00  0.000E+00  0.000E+00  1.07154E+03  6.315E-01  1.000E+01  5.000E-02  1.211E+00
   1    6    8     4     3    9.7275E+00  1.2689E-01   9.6006E+00  0.000E+00  0.000E+00  0.000E+00  1.06381E+03  6.256E-01  1.000E+01  3.500E-02  1.209E+00
   1    6    8     5     1    1.0432E+01  2.2686E-01   1.0205E+01  0.000E+00  0.000E+00  0.000E+00  1.05868E+03  6.790E-01  1.542E+01  6.166E-02  1.226E+00
   1    7    7     5     2    1.0205E+01  2.7894E-01   9.9265E+00  0.000E+00  0.000E+00  0.000E+00  1.05417E+03  6.732E-01  1.519E+01  7.594E-02  1.224E+00
   1    8    7     5     3    9.9265E+00  1.9221E-01   9.7343E+00  0.000E+00  0.000E+00  0.000E+00  1.04992E+03  6.676E-01  1.497E+01  5.241E-02  1.223E+00
   1    8    6     5     4    9.7343E+00  1.3577E-01   9.5985E+00  0.000E+00  0.000E+00  0.000E+00  1.04691E+03  6.637E-01  1.482E+01  3.706E-02  1.221E+00
   1    9    6     6     1    2.1889E+01  2.4742E-01   2.1641E+01  0.000E+00  0.000E+00  0.000E+00  1.04385E+03  1.124E+00  1.200E+01  6.000E-02  1.375E+00
   1   10    7     6     2    2.1641E+01  2.4696E-01   2.1394E+01  0.000E+00  0.000E+00  0.000E+00  1.03930E+03  1.116E+00  1.200E+01  6.000E-02  1.372E+00
   1   11    7     6     3    2.1394E+01  2.4650E-01   2.1148E+01  0.000E+00  0.000E+00  0.000E+00  1.03474E+03  1.108E+00  1.200E+01  6.000E-02  1.369E+00
   1   12    7     6     4    2.1148E+01  2.4603E-01   2.0902E+01  0.000E+00  0.000E+00  0.000E+00  1.03019E+03  1.101E+00  1.200E+01  6.000E-02  1.367E+00
   1   13    7     6     5    2.0902E+01 -1.7643E-02   2.0919E+01  0.000E+00  0.000E+00  0.000E+00  1.02701E+03  1.097E+00  1.200E+01  2.400E-01 -2.450E-02
   1   14    9     7     1    1.5000E+02  1.3345E+00   1.4867E+02  0.000E+00  0.000E+00  0.000E+00  1.03987E+03  2.288E+00  5.529E+01  5.593E-01  7.953E-01
   1   13    8     7     2    1.4867E+02  1.8340E+00   1.4683E+02  0.000E+00  0.000E+00  0.000E+00  1.03478E+03  2.279E+00  5.526E+01  6.148E-01  9.944E-01
   1   13    7     7     3    1.4683E+02  1.4577E+00   1.4537E+02  0.000E+00  0.000E+00  0.000E+00  1.02969E+03  2.271E+00  5.522E+01  5.585E-01  8.701E-01
   1   13    6     8     1    1.6629E+02  8.7801E-01   1.6542E+02  0.000E+00  0.000E+00  0.000E+00  1.02480E+03  2.925E+00  4.241E+01  4.322E-01  6.772E-01
   1   13    5     8     2    1.6542E+02  1.3043E-01   1.6528E+02  0.000E+00  0.000E+00  0.000E+00  1.01855E+03  2.922E+00  4.236E+01  4.317E-01  1.007E-01
   1   13    4     8     3    1.6528E+02 -2.6018E+00   1.6789E+02  0.000E+00  0.000E+00  0.000E+00  1.01230E+03  2.930E+00  4.248E+01  4.329E+00 -2.003E-01
   1   13    3     8     4    1.6789E+02 -3.7076E+00   1.7159E+02  0.000E+00  0.000E+00  0.000E+00  1.00608E+03  2.951E+00  4.278E+01  4.360E+00 -2.835E-01
   1   13    2     8     5    1.7159E+02 -2.5608E+00   1.7416E+02  0.000E+00  0.000E+00  0.000E+00  9.99846E+02  2.971E+00  4.308E+01  4.390E+00 -1.945E-01
   1   13    1     8     6    1.7416E+02 -1.9439E+00   1.7610E+02  0.000E+00  0.000E+00  0.000E+00  9.94860E+02  2.985E+00  4.329E+01  2.647E+00 -2.448E-01
   1    8    6     9     1    0.0000E+00  0.0000E+00   0.0000E+00  0.000E+00  0.000E+00  0.000E+00  1.07875E+03  0.000E+00  4.000E+00  0.000E+00  1.000E+00
   1    8    5     9     2    0.0000E+00  0.0000E+00   0.0000E+00  0.000E+00  0.000E+00  0.000E+00  1.07825E+03  0.000E+00  4.000E+00  0.000E+00  1.000E+00





UNSATURATED ZONE PACKAGE VOLUMETRIC BUDGET FOR  TIME STEP    30 STRESS PERIOD    2
  ------------------------------------------------------------------------------



     CUMULATIVE VOLUMES      L**3       RATES FOR THIS TIME STEP      L**3/T
     ------------------                 ------------------------

           IN:                                      IN:
           ---                                      ---
        INFILTRATION =     2302148.8727          INFILTRATION =           0.8475

          OUT:                                     OUT:
          ----                                     ----
              UZF ET =     1972485.7128                UZF ET =           0.7500
        UZF RECHARGE =       73224.0000          UZF RECHARGE =       0.0000E+00

            IN - OUT =      256439.1600              IN - OUT =       9.7500E-02

          STORAGE:                                 STORAGE:
          --------                                 --------
      STORAGE CHANGE =      256439.1819        STORAGE CHANGE =       9.7500E-02

 PERCENT DISCREPANCY IS DIFFERENCE BETWEEN IN-OUT MINUS CHANGE IN STORAGE
 DIVIDED BY THE AVERAGE OF IN AND OUT TIMES 100

 PERCENT DISCREPANCY =          -0.00     PERCENT DISCREPANCY =           0.00






1
  VOLUMETRIC BUDGET FOR AGRICULTURAL FIELDS AT  END OF TIME STEP   30, STRESS PERIOD   2
  ------------------------------------------------------------------------------

     CUMULATIVE VOLUMES      L**3       RATES FOR THIS TIME STEP      L**3/T
     ------------------                 ------------------------

           IN:                                      IN:
           ---                                      ---
               AG WELLS  =           0.0000                 AG WELLS  =           0.0000
      DIVERSION SEGMENTS =           0.0000        DIVERSION SEGMENTS =           0.0000
       IRRIGATION PONDS  =           0.0000         IRRIGATION PONDS  =           0.0000
           GW IRRIGATION =           0.0000             GW IRRIGATION =           0.0000
           SW IRRIGATION =           0.0000             SW IRRIGATION =           0.0000
        SYSTEM LOSSES GW =           0.0000          SYSTEM LOSSES GW =           0.0000
        SYSTEM LOSSES SW =           0.0000          SYSTEM LOSSES SW =           0.0000

                TOTAL IN =           0.0000                  TOTAL IN =           0.0000

          OUT:                                     OUT:
          ----                                     ----
               AG WELLS  =           0.0000                 AG WELLS  =           0.0000
      DIVERSION SEGMENTS =           0.0000        DIVERSION SEGMENTS =           0.0000
       IRRIGATION PONDS  =           0.0000         IRRIGATION PONDS  =           0.0000
           GW IRRIGATION =           0.0000             GW IRRIGATION =           0.0000
           SW IRRIGATION =           0.0000             SW IRRIGATION =           0.0000
        SYSTEM LOSSES GW =           0.0000          SYSTEM LOSSES GW =           0.0000
        SYSTEM LOSSES SW =           0.0000          SYSTEM LOSSES SW =           0.0000

               TOTAL OUT =           0.0000                 TOTAL OUT =           0.0000

                IN - OUT =           0.0000                  IN - OUT =           0.0000

     PERCENT DISCREPANCY =           0.00         PERCENT DISCREPANCY =           0.00



1
  VOLUMETRIC BUDGET FOR ENTIRE MODEL AT END OF TIME STEP   30, STRESS PERIOD   2
  ------------------------------------------------------------------------------

     CUMULATIVE VOLUMES      L**3       RATES FOR THIS TIME STEP      L**3/T
     ------------------                 ------------------------

           IN:                                      IN:
           ---                                      ---
             STORAGE     =     1717157.7500               STORAGE     =           0.5919
       CONSTANT HEAD     =           0.0000         CONSTANT HEAD     =           0.0000
     HEAD DEP BOUNDS     =      775921.8750       HEAD DEP BOUNDS     =           0.2857
      STREAM LEAKAGE     =    30472192.0000        STREAM LEAKAGE     =          11.2329
        UZF RECHARGE     =       73223.9531          UZF RECHARGE     =           0.0000
               GW ET     =           0.0000                 GW ET     =           0.0000
     SURFACE LEAKAGE     =           0.0000       SURFACE LEAKAGE     =           0.0000
           AG WELLS      =           0.0000             AG WELLS      =           0.0000

                TOTAL IN =    33038496.0000                  TOTAL IN =          12.1105

          OUT:                                     OUT:
          ----                                     ----
             STORAGE     =     3367968.7500               STORAGE     =           0.9902
       CONSTANT HEAD     =           0.0000         CONSTANT HEAD     =           0.0000
     HEAD DEP BOUNDS     =      782284.1250       HEAD DEP BOUNDS     =           0.2886
      STREAM LEAKAGE     =    28888704.0000        STREAM LEAKAGE     =          10.8318
        UZF RECHARGE     =           0.0000          UZF RECHARGE     =           0.0000
               GW ET     =           0.0000                 GW ET     =           0.0000
     SURFACE LEAKAGE     =           0.0000       SURFACE LEAKAGE     =           0.0000
           AG WELLS      =           0.0000             AG WELLS      =           0.0000

               TOTAL OUT =    33038956.0000                 TOTAL OUT =          12.1106

                IN - OUT =        -460.0000                  IN - OUT =      -1.1063E-04

     PERCENT DISCREPANCY =          -0.00         PERCENT DISCREPANCY =          -0.00






         TIME SUMMARY AT END OF TIME STEP   30 IN STRESS PERIOD    2
                    SECONDS     MINUTES      HOURS       DAYS        YEARS
                    -----------------------------------------------------------
   TIME STEP LENGTH  87667.      1461.1      24.352      1.0147     2.77799E-03
 STRESS PERIOD TIME 2.63000E+06  43833.      730.56      30.440     8.33397E-02
         TOTAL TIME 2.71640E+06  45273.      754.56      31.440     8.60775E-02
1
1
                            STRESS PERIOD NO.    3, LENGTH =   2630000.    
                            -----------------------------------------------

                              NUMBER OF TIME STEPS =    30

                               MULTIPLIER FOR DELT =     1.000

                            INITIAL TIME STEP SIZE =   87666.66    

 REUSING NON-PARAMETER GHB CELLS FROM LAST STRESS PERIOD

      2 GHB CELLS

 REUSING STREAM SEGMENT DATA FROM LAST STRESS PERIOD



            AREAL INFILTRATION RATE
 READING ON UNIT   19 WITH FORMAT: (FREE)              

            1           2           3           4           5           6           7           8           9          10
 ........................................................................................................................
   1   1.0000E-10  2.0000E-10   0.000       0.000       0.000       0.000       0.000       0.000       0.000       0.000    
   2   2.0000E-10  1.0000E-10  2.0000E-10   0.000       0.000      8.0000E-10  8.0000E-10  5.0000E-10   0.000       0.000    
   3    0.000      5.0000E-10  1.0000E-10  1.0000E-10  8.0000E-10  8.0000E-10  5.0000E-10  5.0000E-10   0.000       0.000    
   4   8.0000E-10  5.0000E-10  1.0000E-10  1.0000E-10  1.0000E-10  1.0000E-10  1.0000E-10  1.0000E-10  2.0000E-10   0.000    
   5   8.0000E-10  5.0000E-10  1.0000E-10  1.0000E-10  1.0000E-10  1.0000E-10  1.0000E-10  1.0000E-10  1.0000E-10  1.0000E-10
   6   8.0000E-10  5.0000E-10  5.0000E-10  2.0000E-10  2.0000E-10  1.0000E-10  1.0000E-10  1.0000E-10  1.0000E-10  5.0000E-10
   7   8.0000E-10  5.0000E-10  5.0000E-10  2.0000E-10  2.0000E-10  1.0000E-10  1.0000E-10  2.0000E-10  2.0000E-10   0.000    
   8    0.000      5.0000E-10  5.0000E-10  2.0000E-10  2.0000E-10  1.0000E-10  1.0000E-10  2.0000E-10  5.0000E-10   0.000    
   9    0.000      5.0000E-10  5.0000E-10  2.0000E-10  2.0000E-10  1.0000E-10  1.0000E-10  2.0000E-10  5.0000E-10   0.000    
  10    0.000      5.0000E-10  5.0000E-10  2.0000E-10  2.0000E-10  1.0000E-10  1.0000E-10  2.0000E-10  5.0000E-10  8.0000E-10
  11    0.000      1.0000E-10  1.0000E-10  1.0000E-10  1.0000E-10  1.0000E-10  1.0000E-10  2.0000E-10  5.0000E-10   0.000    
  12   1.0000E-10  1.0000E-10  1.0000E-10  1.0000E-10  1.0000E-10  1.0000E-10  1.0000E-10  1.0000E-10  2.0000E-10   0.000    
  13   1.0000E-10  1.0000E-10  2.0000E-10  2.0000E-10  2.0000E-10  2.0000E-10  2.0000E-10  1.0000E-10  1.0000E-10   0.000    
  14    0.000      2.0000E-10  5.0000E-10  5.0000E-10  5.0000E-10  5.0000E-10  5.0000E-10  2.0000E-10  1.0000E-10   0.000    
  15    0.000       0.000      8.0000E-10  8.0000E-10  8.0000E-10  8.0000E-10   0.000       0.000       0.000       0.000    

                  ET RATE =  5.000000E-10

 USING ET EXTINCTION DEPTH FROM PREVIOUS STRESS PERIOD. CURRENT PERIOD IS:       3

 USING EXTINCTION WATER CONTENT FROM PREVIOUS STRESS PERIOD. CURRENT PERIOD IS:       3

 USING AIR ENTRY PRESSURE FROM PREVIOUS STRESS PERIOD. CURRENT PERIOD IS:       3

 USING ROOT PRESSURE HEAD FROM PREVIOUS STRESS PERIOD. CURRENT PERIOD IS:       3

 USING ROOT ACTIVITY FROM PREVIOUS STRESS PERIOD. CURRENT PERIOD IS:       3

 PROCESSING AG STRESS PERIOD DATA

 READING AG STRESS PERIOD DATA

 READING IRRIGATION SEGMENT

 READING IRRIGATION WELL

 READING SUPPLEMENTAL WELL

 NO IRRPOND OR REUSING IRRPOND DATA FROM LAST STRESS PERIOD

 END PROCESSING AG STRESS PERIOD DATA OPTIONS
 
 SOLVING FOR HEAD 
                                                   Max.-Head-Change                         Max.-Flux-Residual
  Residual-Control   Outer-Iter.   Inner-Iter.     Column Row Layer    Maximum-Head-Change  Column Row Layer    Maximum-Flux-Residual          L2-NORM 
          0                 1           2             2    2     1       0.3921640727E-02       2    2    1         0.2048605367E+00      0.4998719366E+00
          0                 2           2             7   13     1      -0.6931948785E-03       7   13    1        -0.3837497749E-01      0.6128776747E-01
          0                 3           1             7   13     1       0.4719176522E-04       7   13    1         0.2685570582E-02      0.4239795562E-02

    ------------------------------------------------
       NWT REQUIRED            3 OUTER ITERATIONS 
       AND A TOTAL OF          5 INNER ITERATIONS.
    ------------------------------------------------

 NO OUTPUT CONTROL FOR STRESS PERIOD    3   TIME STEP    1
 
 SOLVING FOR HEAD 
                                                   Max.-Head-Change                         Max.-Flux-Residual
  Residual-Control   Outer-Iter.   Inner-Iter.     Column Row Layer    Maximum-Head-Change  Column Row Layer    Maximum-Flux-Residual          L2-NORM 
          0                 1           2             2   13     1       0.5737848324E-02       4   13    1         0.3262450960E+00      0.7450786839E+00
          0                 2           2             4   13     1      -0.5480878175E-03       4   13    1        -0.3228390834E-01      0.7315651980E-01
          0                 3           1             4   13     1       0.3677863260E-04       4   13    1         0.2227302336E-02      0.4995162275E-02

    ------------------------------------------------
       NWT REQUIRED            3 OUTER ITERATIONS 
       AND A TOTAL OF          5 INNER ITERATIONS.
    ------------------------------------------------

 NO OUTPUT CONTROL FOR STRESS PERIOD    3   TIME STEP    2
 
 SOLVING FOR HEAD 
                                                   Max.-Head-Change                         Max.-Flux-Residual
  Residual-Control   Outer-Iter.   Inner-Iter.     Column Row Layer    Maximum-Head-Change  Column Row Layer    Maximum-Flux-Residual          L2-NORM 
          0                 1           2             2   13     1       0.5310463294E-02       2   13    1         0.2989811985E+00      0.7084675238E+00
          0                 2           2             4   13     1      -0.4975366923E-03       4   13    1        -0.2928598003E-01      0.6963272701E-01
          0                 3           1             4   13     1       0.3336997042E-04       4   13    1         0.2019443943E-02      0.4761546779E-02

    ------------------------------------------------
       NWT REQUIRED            3 OUTER ITERATIONS 
       AND A TOTAL OF          5 INNER ITERATIONS.
    ------------------------------------------------

 NO OUTPUT CONTROL FOR STRESS PERIOD    3   TIME STEP    3
 
 SOLVING FOR HEAD 
                                                   Max.-Head-Change                         Max.-Flux-Residual
  Residual-Control   Outer-Iter.   Inner-Iter.     Column Row Layer    Maximum-Head-Change  Column Row Layer    Maximum-Flux-Residual          L2-NORM 
          0                 1           2             2   13     1       0.4915335462E-02       2   13    1         0.2767006368E+00      0.6757128720E+00
          0                 2           2             2    2     1      -0.4665859467E-03       4   13    1        -0.2658701655E-01      0.6648371856E-01
          0                 3           1             2    2     1       0.3177276404E-04       4   13    1         0.1833410050E-02      0.4552599550E-02

    ------------------------------------------------
       NWT REQUIRED            3 OUTER ITERATIONS 
       AND A TOTAL OF          5 INNER ITERATIONS.
    ------------------------------------------------

 NO OUTPUT CONTROL FOR STRESS PERIOD    3   TIME STEP    4
 
 SOLVING FOR HEAD 
                                                   Max.-Head-Change                         Max.-Flux-Residual
  Residual-Control   Outer-Iter.   Inner-Iter.     Column Row Layer    Maximum-Head-Change  Column Row Layer    Maximum-Flux-Residual          L2-NORM 
          0                 1           2             2    2     1       0.4764247491E-02       2   13    1         0.2561076174E+00      0.6464225526E+00
          0                 2           2             2    2     1      -0.4634322824E-03       2    2    1        -0.2488671475E-01      0.6366872501E-01
          0                 3           1             2    2     1       0.3155801145E-04       2    2    1         0.1742070209E-02      0.4365937162E-02

    ------------------------------------------------
       NWT REQUIRED            3 OUTER ITERATIONS 
       AND A TOTAL OF          5 INNER ITERATIONS.
    ------------------------------------------------

 NO OUTPUT CONTROL FOR STRESS PERIOD    3   TIME STEP    5
 
 SOLVING FOR HEAD 
                                                   Max.-Head-Change                         Max.-Flux-Residual
  Residual-Control   Outer-Iter.   Inner-Iter.     Column Row Layer    Maximum-Head-Change  Column Row Layer    Maximum-Flux-Residual          L2-NORM 
          0                 1           2             2    2     1       0.4732200352E-02       2    2    1         0.2471810290E+00      0.6202312920E+00
          0                 2           2             2    2     1      -0.4603149523E-03       2    2    1        -0.2471816257E-01      0.6115467715E-01
          0                 3           1             2    2     1       0.3134573327E-04       2    2    1         0.1730271577E-02      0.4199957212E-02

    ------------------------------------------------
       NWT REQUIRED            3 OUTER ITERATIONS 
       AND A TOTAL OF          5 INNER ITERATIONS.
    ------------------------------------------------

 NO OUTPUT CONTROL FOR STRESS PERIOD    3   TIME STEP    6
 
 SOLVING FOR HEAD 
                                                   Max.-Head-Change                         Max.-Flux-Residual
  Residual-Control   Outer-Iter.   Inner-Iter.     Column Row Layer    Maximum-Head-Change  Column Row Layer    Maximum-Flux-Residual          L2-NORM 
          0                 1           2             2    2     1       0.4700606368E-02       2    2    1         0.2455194204E+00      0.5968142160E+00
          0                 2           2             2    2     1      -0.4572417024E-03       2    2    1        -0.2455200061E-01      0.5890799368E-01
          0                 3           1             2    2     1       0.3113645612E-04       2    2    1         0.1718640229E-02      0.4051671167E-02

    ------------------------------------------------
       NWT REQUIRED            3 OUTER ITERATIONS 
       AND A TOTAL OF          5 INNER ITERATIONS.
    ------------------------------------------------

 NO OUTPUT CONTROL FOR STRESS PERIOD    3   TIME STEP    7
 
 SOLVING FOR HEAD 
                                                   Max.-Head-Change                         Max.-Flux-Residual
  Residual-Control   Outer-Iter.   Inner-Iter.     Column Row Layer    Maximum-Head-Change  Column Row Layer    Maximum-Flux-Residual          L2-NORM 
          0                 1           2             2    2     1       0.4669458605E-02       2    2    1         0.2438813074E+00      0.5758725219E+00
          0                 2           2             2    2     1      -0.4542118580E-03       2    2    1        -0.2438818822E-01      0.5689915039E-01
          0                 3           1             2    2     1       0.3093013525E-04       2    2    1         0.1707173378E-02      0.3920168642E-02

    ------------------------------------------------
       NWT REQUIRED            3 OUTER ITERATIONS 
       AND A TOTAL OF          5 INNER ITERATIONS.
    ------------------------------------------------

 NO OUTPUT CONTROL FOR STRESS PERIOD    3   TIME STEP    8
 
 SOLVING FOR HEAD 
                                                   Max.-Head-Change                         Max.-Flux-Residual
  Residual-Control   Outer-Iter.   Inner-Iter.     Column Row Layer    Maximum-Head-Change  Column Row Layer    Maximum-Flux-Residual          L2-NORM 
          0                 1           2             2    2     1       0.4638749856E-02       2    2    1         0.2422663304E+00      0.5571329727E+00
          0                 2           2             2    2     1      -0.4512247179E-03       2    2    1        -0.2422668944E-01      0.5510234032E-01
          0                 3           1             2    2     1       0.3072672238E-04       2    2    1         0.1695868471E-02      0.3800779545E-02

    ------------------------------------------------
       NWT REQUIRED            3 OUTER ITERATIONS 
       AND A TOTAL OF          5 INNER ITERATIONS.
    ------------------------------------------------

 NO OUTPUT CONTROL FOR STRESS PERIOD    3   TIME STEP    9
 
 SOLVING FOR HEAD 
                                                   Max.-Head-Change                         Max.-Flux-Residual
  Residual-Control   Outer-Iter.   Inner-Iter.     Column Row Layer    Maximum-Head-Change  Column Row Layer    Maximum-Flux-Residual          L2-NORM 
          0                 1           2             2    2     1       0.4608473399E-02       2    2    1         0.2406741158E+00      0.5403538691E+00
          0                 2           2             2    2     1      -0.4482796287E-03       2    2    1        -0.2406746696E-01      0.5349350062E-01
          0                 3           1             2    2     1       0.3052617279E-04       2    2    1         0.1684722895E-02      0.3694716576E-02

    ------------------------------------------------
       NWT REQUIRED            3 OUTER ITERATIONS 
       AND A TOTAL OF          5 INNER ITERATIONS.
    ------------------------------------------------

 NO OUTPUT CONTROL FOR STRESS PERIOD    3   TIME STEP   10
 
 SOLVING FOR HEAD 
                                                   Max.-Head-Change                         Max.-Flux-Residual
  Residual-Control   Outer-Iter.   Inner-Iter.     Column Row Layer    Maximum-Head-Change  Column Row Layer    Maximum-Flux-Residual          L2-NORM 
          0                 1           2             2    2     1       0.4578535511E-02       2    2    1         0.2390997796E+00      0.5253116936E+00
          0                 2           2             2    2     1      -0.4453674732E-03       2    2    1        -0.2391003232E-01      0.5205008379E-01
          0                 3           1             2    2     1       0.3032786614E-04       2    2    1         0.1673702482E-02      0.3600745662E-02

    ------------------------------------------------
       NWT REQUIRED            3 OUTER ITERATIONS 
       AND A TOTAL OF          5 INNER ITERATIONS.
    ------------------------------------------------

 NO OUTPUT CONTROL FOR STRESS PERIOD    3   TIME STEP   11
 
 SOLVING FOR HEAD 
                                                   Max.-Head-Change                         Max.-Flux-Residual
  Residual-Control   Outer-Iter.   Inner-Iter.     Column Row Layer    Maximum-Head-Change  Column Row Layer    Maximum-Flux-Residual          L2-NORM 
          0                 1           2             2    2     1       0.4549016790E-02       2    2    1         0.2375475332E+00      0.5118069374E+00
          0                 2           2             2    2     1      -0.4424960918E-03       2    2    1        -0.2375480670E-01      0.5075393659E-01
          0                 3           1             2    2     1       0.3013233568E-04       2    2    1         0.1662836691E-02      0.3513181357E-02

    ------------------------------------------------
       NWT REQUIRED            3 OUTER ITERATIONS 
       AND A TOTAL OF          5 INNER ITERATIONS.
    ------------------------------------------------

 NO OUTPUT CONTROL FOR STRESS PERIOD    3   TIME STEP   12
 
 SOLVING FOR HEAD 
                                                   Max.-Head-Change                         Max.-Flux-Residual
  Residual-Control   Outer-Iter.   Inner-Iter.     Column Row Layer    Maximum-Head-Change  Column Row Layer    Maximum-Flux-Residual          L2-NORM 
          0                 1           2             2    2     1       0.4519910909E-02       2    2    1         0.2360170202E+00      0.4996684567E+00
          0                 2           2             2    2     1      -0.4396648691E-03       2    2    1        -0.2360175446E-01      0.4959089536E-01
          0                 3           1             2    2     1       0.2993953974E-04       2    2    1         0.1652123025E-02      0.3436755389E-02

    ------------------------------------------------
       NWT REQUIRED            3 OUTER ITERATIONS 
       AND A TOTAL OF          5 INNER ITERATIONS.
    ------------------------------------------------

 NO OUTPUT CONTROL FOR STRESS PERIOD    3   TIME STEP   13
 
 SOLVING FOR HEAD 
                                                   Max.-Head-Change                         Max.-Flux-Residual
  Residual-Control   Outer-Iter.   Inner-Iter.     Column Row Layer    Maximum-Head-Change  Column Row Layer    Maximum-Flux-Residual          L2-NORM 
          0                 1           2             2    2     1       0.4491211212E-02       2    2    1         0.2345079124E+00      0.4887377962E+00
          0                 2           2             2    2     1      -0.4368731566E-03       2    2    1        -0.2345084272E-01      0.4853933631E-01
          0                 3           1             2    2     1       0.2974943478E-04       2    2    1         0.1641559221E-02      0.3367082809E-02

    ------------------------------------------------
       NWT REQUIRED            3 OUTER ITERATIONS 
       AND A TOTAL OF          5 INNER ITERATIONS.
    ------------------------------------------------

 NO OUTPUT CONTROL FOR STRESS PERIOD    3   TIME STEP   14
 
 SOLVING FOR HEAD 
                                                   Max.-Head-Change                         Max.-Flux-Residual
  Residual-Control   Outer-Iter.   Inner-Iter.     Column Row Layer    Maximum-Head-Change  Column Row Layer    Maximum-Flux-Residual          L2-NORM 
          0                 1           2             2    2     1       0.4462824820E-02       2    2    1         0.2330153288E+00      0.4788720613E+00
          0                 2           2             2    2     1      -0.4341119208E-03       2    2    1        -0.2330158345E-01      0.4759143368E-01
          0                 3           1             2    2     1       0.2956140520E-04       2    2    1         0.1631111074E-02      0.3304041970E-02

    ------------------------------------------------
       NWT REQUIRED            3 OUTER ITERATIONS 
       AND A TOTAL OF          5 INNER ITERATIONS.
    ------------------------------------------------

 NO OUTPUT CONTROL FOR STRESS PERIOD    3   TIME STEP   15
 
 SOLVING FOR HEAD 
                                                   Max.-Head-Change                         Max.-Flux-Residual
  Residual-Control   Outer-Iter.   Inner-Iter.     Column Row Layer    Maximum-Head-Change  Column Row Layer    Maximum-Flux-Residual          L2-NORM 
          0                 1           2             2    2     1       0.4434832751E-02       2    2    1         0.2315435257E+00      0.4699384686E+00
          0                 2           2             2    2     1      -0.4313890423E-03       2    2    1        -0.2315440224E-01      0.4673193446E-01
          0                 3           1             2    2     1       0.2937598731E-04       2    2    1         0.1620808387E-02      0.3247045045E-02

    ------------------------------------------------
       NWT REQUIRED            3 OUTER ITERATIONS 
       AND A TOTAL OF          5 INNER ITERATIONS.
    ------------------------------------------------

 NO OUTPUT CONTROL FOR STRESS PERIOD    3   TIME STEP   16
 
 SOLVING FOR HEAD 
                                                   Max.-Head-Change                         Max.-Flux-Residual
  Residual-Control   Outer-Iter.   Inner-Iter.     Column Row Layer    Maximum-Head-Change  Column Row Layer    Maximum-Flux-Residual          L2-NORM 
          0                 1           2             2    2     1       0.4407229088E-02       2    2    1         0.2300921678E+00      0.4618380669E+00
          0                 2           2             2    2     1      -0.4287039453E-03       2    2    1        -0.2300926558E-01      0.4595220682E-01
          0                 3           1             2    2     1       0.2919314206E-04       2    2    1         0.1610648823E-02      0.3194967980E-02

    ------------------------------------------------
       NWT REQUIRED            3 OUTER ITERATIONS 
       AND A TOTAL OF          5 INNER ITERATIONS.
    ------------------------------------------------

 NO OUTPUT CONTROL FOR STRESS PERIOD    3   TIME STEP   17
 
 SOLVING FOR HEAD 
                                                   Max.-Head-Change                         Max.-Flux-Residual
  Residual-Control   Outer-Iter.   Inner-Iter.     Column Row Layer    Maximum-Head-Change  Column Row Layer    Maximum-Flux-Residual          L2-NORM 
          0                 1           2             2    2     1       0.4379997062E-02       2    2    1         0.2286604169E+00      0.4544617525E+00
          0                 2           2             2    2     1      -0.4260549990E-03       2    2    1        -0.2286608963E-01      0.4524107121E-01
          0                 3           1             2    2     1       0.2901275916E-04       2    2    1         0.1600626526E-02      0.3147893789E-02

    ------------------------------------------------
       NWT REQUIRED            3 OUTER ITERATIONS 
       AND A TOTAL OF          5 INNER ITERATIONS.
    ------------------------------------------------

 NO OUTPUT CONTROL FOR STRESS PERIOD    3   TIME STEP   18
 
 SOLVING FOR HEAD 
                                                   Max.-Head-Change                         Max.-Flux-Residual
  Residual-Control   Outer-Iter.   Inner-Iter.     Column Row Layer    Maximum-Head-Change  Column Row Layer    Maximum-Flux-Residual          L2-NORM 
          0                 1           2             2    2     1       0.4353151369E-02       2    2    1         0.2272489978E+00      0.4477424130E+00
          0                 2           2             2    2     1      -0.4234436319E-03       2    2    1        -0.2272494686E-01      0.4459267484E-01
          0                 3           1             2    2     1       0.2883493470E-04       2    2    1         0.1590746523E-02      0.3105138536E-02

    ------------------------------------------------
       NWT REQUIRED            3 OUTER ITERATIONS 
       AND A TOTAL OF          5 INNER ITERATIONS.
    ------------------------------------------------

 NO OUTPUT CONTROL FOR STRESS PERIOD    3   TIME STEP   19
 
 SOLVING FOR HEAD 
                                                   Max.-Head-Change                         Max.-Flux-Residual
  Residual-Control   Outer-Iter.   Inner-Iter.     Column Row Layer    Maximum-Head-Change  Column Row Layer    Maximum-Flux-Residual          L2-NORM 
          0                 1           2             2    2     1       0.4326589338E-02       2    2    1         0.2258525414E+00      0.4415879275E+00
          0                 2           2             2    2     1      -0.4208598585E-03       2    2    1        -0.2258530042E-01      0.4399820735E-01
          0                 3           1             2    2     1       0.2865898918E-04       2    2    1         0.1580971273E-02      0.3065258862E-02

    ------------------------------------------------
       NWT REQUIRED            3 OUTER ITERATIONS 
       AND A TOTAL OF          5 INNER ITERATIONS.
    ------------------------------------------------

 NO OUTPUT CONTROL FOR STRESS PERIOD    3   TIME STEP   20
 
 SOLVING FOR HEAD 
                                                   Max.-Head-Change                         Max.-Flux-Residual
  Residual-Control   Outer-Iter.   Inner-Iter.     Column Row Layer    Maximum-Head-Change  Column Row Layer    Maximum-Flux-Residual          L2-NORM 
          0                 1           2             2    2     1       0.4300478965E-02       2    2    1         0.2244798663E+00      0.4359393856E+00
          0                 2           2             2    2     1      -0.4183200194E-03       2    2    1        -0.2244803214E-01      0.4345138173E-01
          0                 3           1             2    2     1       0.2848603546E-04       2    2    1         0.1571362492E-02      0.3028301030E-02

    ------------------------------------------------
       NWT REQUIRED            3 OUTER ITERATIONS 
       AND A TOTAL OF          5 INNER ITERATIONS.
    ------------------------------------------------

 NO OUTPUT CONTROL FOR STRESS PERIOD    3   TIME STEP   21
 
 SOLVING FOR HEAD 
                                                   Max.-Head-Change                         Max.-Flux-Residual
  Residual-Control   Outer-Iter.   Inner-Iter.     Column Row Layer    Maximum-Head-Change  Column Row Layer    Maximum-Flux-Residual          L2-NORM 
          0                 1           2             2    2     1       0.4274640541E-02       2    2    1         0.2231215352E+00      0.4307383254E+00
          0                 2           2             2    2     1      -0.4158066334E-03       2    2    1        -0.2231219824E-01      0.4294771498E-01
          0                 3           1             2    2     1       0.2831488352E-04       2    2    1         0.1561854118E-02      0.2994621151E-02

    ------------------------------------------------
       NWT REQUIRED            3 OUTER ITERATIONS 
       AND A TOTAL OF          5 INNER ITERATIONS.
    ------------------------------------------------

 NO OUTPUT CONTROL FOR STRESS PERIOD    3   TIME STEP   22
 
 SOLVING FOR HEAD 
                                                   Max.-Head-Change                         Max.-Flux-Residual
  Residual-Control   Outer-Iter.   Inner-Iter.     Column Row Layer    Maximum-Head-Change  Column Row Layer    Maximum-Flux-Residual          L2-NORM 
          0                 1           2             2    2     1       0.4249069433E-02       2    2    1         0.2217773042E+00      0.4259341993E+00
          0                 2           2             2    2     1      -0.4133192505E-03       2    2    1        -0.2217777439E-01      0.4248109880E-01
          0                 3           1             2    2     1       0.2814550214E-04       2    2    1         0.1552444457E-02      0.2963466062E-02

    ------------------------------------------------
       NWT REQUIRED            3 OUTER ITERATIONS 
       AND A TOTAL OF          5 INNER ITERATIONS.
    ------------------------------------------------

 NO OUTPUT CONTROL FOR STRESS PERIOD    3   TIME STEP   23
 
 SOLVING FOR HEAD 
                                                   Max.-Head-Change                         Max.-Flux-Residual
  Residual-Control   Outer-Iter.   Inner-Iter.     Column Row Layer    Maximum-Head-Change  Column Row Layer    Maximum-Flux-Residual          L2-NORM 
          0                 1           2             2    2     1       0.4223934285E-02       2    2    1         0.2204560075E+00      0.4214811018E+00
          0                 2           2             2    2     1      -0.4108742747E-03       2    2    1        -0.2204564396E-01      0.4204810077E-01
          0                 3           1             2    2     1       0.2797900841E-04       2    2    1         0.1543195329E-02      0.2934244818E-02

    ------------------------------------------------
       NWT REQUIRED            3 OUTER ITERATIONS 
       AND A TOTAL OF          5 INNER ITERATIONS.
    ------------------------------------------------

 NO OUTPUT CONTROL FOR STRESS PERIOD    3   TIME STEP   24
 
 SOLVING FOR HEAD 
                                                   Max.-Head-Change                         Max.-Flux-Residual
  Residual-Control   Outer-Iter.   Inner-Iter.     Column Row Layer    Maximum-Head-Change  Column Row Layer    Maximum-Flux-Residual          L2-NORM 
          0                 1           2             2    2     1       0.4199142071E-02       2    2    1         0.2191527778E+00      0.4173408621E+00
          0                 2           2             2    2     1      -0.4084626574E-03       2    2    1        -0.2191532027E-01      0.4164516098E-01
          0                 3           1             2    2     1       0.2781478627E-04       2    2    1         0.1534072676E-02      0.2906891072E-02

    ------------------------------------------------
       NWT REQUIRED            3 OUTER ITERATIONS 
       AND A TOTAL OF          5 INNER ITERATIONS.
    ------------------------------------------------

 NO OUTPUT CONTROL FOR STRESS PERIOD    3   TIME STEP   25
 
 SOLVING FOR HEAD 
                                                   Max.-Head-Change                         Max.-Flux-Residual
  Residual-Control   Outer-Iter.   Inner-Iter.     Column Row Layer    Maximum-Head-Change  Column Row Layer    Maximum-Flux-Residual          L2-NORM 
          0                 1           2             2    2     1       0.4174600530E-02       2    2    1         0.2178627913E+00      0.4134797904E+00
          0                 2           2             2    2     1      -0.4060754240E-03       2    2    1        -0.2178632090E-01      0.4126956013E-01
          0                 3           1             2    2     1       0.2765222511E-04       2    2    1         0.1525042735E-02      0.2881935758E-02

    ------------------------------------------------
       NWT REQUIRED            3 OUTER ITERATIONS 
       AND A TOTAL OF          5 INNER ITERATIONS.
    ------------------------------------------------

 NO OUTPUT CONTROL FOR STRESS PERIOD    3   TIME STEP   26
 
 SOLVING FOR HEAD 
                                                   Max.-Head-Change                         Max.-Flux-Residual
  Residual-Control   Outer-Iter.   Inner-Iter.     Column Row Layer    Maximum-Head-Change  Column Row Layer    Maximum-Flux-Residual          L2-NORM 
          0                 1           2             2    2     1       0.4150391834E-02       2    2    1         0.2165903393E+00      0.4098650537E+00
          0                 2           2             2    2     1      -0.4037205679E-03       2    2    1        -0.2165907503E-01      0.4092682611E-01
          0                 3           1             2    2     1       0.2749186784E-04       2    2    1         0.1516135520E-02      0.2858546844E-02

    ------------------------------------------------
       NWT REQUIRED            3 OUTER ITERATIONS 
       AND A TOTAL OF          5 INNER ITERATIONS.
    ------------------------------------------------

 NO OUTPUT CONTROL FOR STRESS PERIOD    3   TIME STEP   27
 
 SOLVING FOR HEAD 
                                                   Max.-Head-Change                         Max.-Flux-Residual
  Residual-Control   Outer-Iter.   Inner-Iter.     Column Row Layer    Maximum-Head-Change  Column Row Layer    Maximum-Flux-Residual          L2-NORM 
          0                 1           2             2    2     1       0.4126511094E-02       2    2    1         0.2153351449E+00      0.4064678185E+00
          0                 2           2             2    2     1      -0.4013976122E-03       2    2    1        -0.2153355489E-01      0.4058387104E-01
          0                 3           1             2    2     1       0.2733368347E-04       2    2    1         0.1507349112E-02      0.2835223243E-02

    ------------------------------------------------
       NWT REQUIRED            3 OUTER ITERATIONS 
       AND A TOTAL OF          5 INNER ITERATIONS.
    ------------------------------------------------

 NO OUTPUT CONTROL FOR STRESS PERIOD    3   TIME STEP   28
 
 SOLVING FOR HEAD 
                                                   Max.-Head-Change                         Max.-Flux-Residual
  Residual-Control   Outer-Iter.   Inner-Iter.     Column Row Layer    Maximum-Head-Change  Column Row Layer    Maximum-Flux-Residual          L2-NORM 
          0                 1           2             2    2     1       0.4102953139E-02       2    2    1         0.2140969548E+00      0.4032579467E+00
          0                 2           2             2    2     1      -0.3991060559E-03       2    2    1        -0.2140973524E-01      0.4026944594E-01
          0                 3           1             2    2     1       0.2717763674E-04       2    2    1         0.1498681733E-02      0.2814509076E-02

    ------------------------------------------------
       NWT REQUIRED            3 OUTER ITERATIONS 
       AND A TOTAL OF          5 INNER ITERATIONS.
    ------------------------------------------------

 NO OUTPUT CONTROL FOR STRESS PERIOD    3   TIME STEP   29
 
 SOLVING FOR HEAD 
                                                   Max.-Head-Change                         Max.-Flux-Residual
  Residual-Control   Outer-Iter.   Inner-Iter.     Column Row Layer    Maximum-Head-Change  Column Row Layer    Maximum-Flux-Residual          L2-NORM 
          0                 1           2             4   13     1       0.9279378985E-02       4   13    1         0.5331634570E+00      0.1129361325E+01
          0                 2           2             4   13     1      -0.8928503052E-03       4   13    1        -0.5274537437E-01      0.1105072739E+00
          0                 3           1             4   13     1       0.5989610090E-04       4   13    1         0.3637934295E-02      0.7507072825E-02

    ------------------------------------------------
       NWT REQUIRED            3 OUTER ITERATIONS 
       AND A TOTAL OF          5 INNER ITERATIONS.
    ------------------------------------------------

 NO OUTPUT CONTROL FOR STRESS PERIOD    3   TIME STEP   30



 STREAM LISTING     PERIOD      3   STEP       30

 LAYER ROW COL. STREAM  RCH.  FLOW INTO     FLOW TO   FLOW OUT OF   OVRLND.     DIRECT     STREAM       STREAM     STREAM     STREAM   STREAMBED  STREAMBED
                SEG.NO.  NO.  STRM. RCH.    AQUIFER    STRM. RCH.    RUNOFF     PRECIP       ET          HEAD       DEPTH      WIDTH   CONDCTNC.   GRADIENT

   1    1    1     1     1    5.4376E+01  3.5202E-01   5.4024E+01  0.000E+00  0.000E+00  0.000E+00  1.09450E+03  1.455E+00  1.756E+01  7.901E-02  1.485E+00
   1    2    2     1     2    5.4024E+01  5.4505E-01   5.3479E+01  0.000E+00  0.000E+00  0.000E+00  1.08951E+03  1.449E+00  1.750E+01  1.225E-01  1.483E+00
   1    3    3     1     3    5.3479E+01  4.6474E-01   5.3014E+01  0.000E+00  0.000E+00  0.000E+00  1.08386E+03  1.443E+00  1.743E+01  1.046E-01  1.481E+00
   1    3    4     1     4    5.3014E+01  4.2788E-01   5.2587E+01  0.000E+00  0.000E+00  0.000E+00  1.07884E+03  1.437E+00  1.738E+01  9.643E-02  1.479E+00
   1    4    5     2     1    5.0587E+01  3.7745E-01   5.0209E+01  0.000E+00  0.000E+00  0.000E+00  1.07377E+03  1.839E+00  1.200E+01  7.800E-02  1.613E+00
   1    5    6     2     2    5.0209E+01  2.8990E-01   4.9919E+01  0.000E+00  0.000E+00  0.000E+00  1.06834E+03  1.832E+00  1.200E+01  6.000E-02  1.611E+00
   1    6    6     2     3    4.9919E+01  2.8952E-01   4.9630E+01  0.000E+00  0.000E+00  0.000E+00  1.06362E+03  1.825E+00  1.200E+01  6.000E-02  1.608E+00
   1    7    6     2     4    4.9630E+01  2.8914E-01   4.9341E+01  0.000E+00  0.000E+00  0.000E+00  1.05889E+03  1.819E+00  1.200E+01  6.000E-02  1.606E+00
   1    8    6     2     5    4.9341E+01  2.8876E-01   4.9052E+01  0.000E+00  0.000E+00  0.000E+00  1.05417E+03  1.813E+00  1.200E+01  6.000E-02  1.604E+00
   1    3    5     3     1    2.0000E+00  2.8252E-01   1.7175E+00  0.000E+00  0.000E+00  0.000E+00  1.07555E+03  1.909E+00  9.636E+00  7.227E-02  1.955E+00
   1    3    6     3     2    1.7175E+00  2.4905E-01   1.4684E+00  0.000E+00  0.000E+00  0.000E+00  1.07264E+03  1.727E+00  8.909E+00  6.682E-02  1.864E+00
   1    3    7     3     3    1.4684E+00  1.9718E-01   1.2712E+00  0.000E+00  0.000E+00  0.000E+00  1.06987E+03  1.555E+00  8.218E+00  5.547E-02  1.777E+00
   1    4    8     3     4    1.2712E+00  2.2567E-01   1.0456E+00  0.000E+00  0.000E+00  0.000E+00  1.06682E+03  1.364E+00  7.455E+00  6.709E-02  1.682E+00
   1    5    8     3     5    1.0456E+00  1.5790E-01   8.8768E-01  0.000E+00  0.000E+00  0.000E+00  1.06362E+03  1.164E+00  6.655E+00  4.991E-02  1.582E+00
   1    6    8     3     6    8.8768E-01  5.5980E-02   8.3170E-01  0.000E+00  0.000E+00  0.000E+00  1.06158E+03  1.036E+00  6.145E+00  1.844E-02  1.518E+00
   1    5   10     4     1    1.0000E+01  9.0919E-02   9.9091E+00  0.000E+00  0.000E+00  0.000E+00  1.07836E+03  6.368E-01  1.000E+01  2.500E-02  1.212E+00
   1    5    9     4     2    9.9091E+00  1.8158E-01   9.7275E+00  0.000E+00  0.000E+00  0.000E+00  1.07154E+03  6.315E-01  1.000E+01  5.000E-02  1.211E+00
   1    6    8     4     3    9.7275E+00  1.2689E-01   9.6006E+00  0.000E+00  0.000E+00  0.000E+00  1.06381E+03  6.256E-01  1.000E+01  3.500E-02  1.209E+00
   1    6    8     5     1    1.0432E+01  2.2686E-01   1.0205E+01  0.000E+00  0.000E+00  0.000E+00  1.05868E+03  6.790E-01  1.542E+01  6.166E-02  1.226E+00
   1    7    7     5     2    1.0205E+01  2.7894E-01   9.9265E+00  0.000E+00  0.000E+00  0.000E+00  1.05417E+03  6.732E-01  1.519E+01  7.594E-02  1.224E+00
   1    8    7     5     3    9.9265E+00  1.9221E-01   9.7343E+00  0.000E+00  0.000E+00  0.000E+00  1.04992E+03  6.676E-01  1.497E+01  5.241E-02  1.223E+00
   1    8    6     5     4    9.7343E+00  1.3577E-01   9.5985E+00  0.000E+00  0.000E+00  0.000E+00  1.04691E+03  6.637E-01  1.482E+01  3.706E-02  1.221E+00
   1    9    6     6     1    5.8650E+01  3.0201E-01   5.8348E+01  0.000E+00  0.000E+00  0.000E+00  1.04476E+03  2.034E+00  1.200E+01  6.000E-02  1.678E+00
   1   10    7     6     2    5.8348E+01  3.0164E-01   5.8047E+01  0.000E+00  0.000E+00  0.000E+00  1.04021E+03  2.027E+00  1.200E+01  6.000E-02  1.676E+00
   1   11    7     6     3    5.8047E+01  3.0126E-01   5.7745E+01  0.000E+00  0.000E+00  0.000E+00  1.03566E+03  2.021E+00  1.200E+01  6.000E-02  1.674E+00
   1   12    7     6     4    5.7745E+01  3.0088E-01   5.7445E+01  0.000E+00  0.000E+00  0.000E+00  1.03111E+03  2.015E+00  1.200E+01  6.000E-02  1.672E+00
   1   13    7     6     5    5.7445E+01  1.9557E-02   5.7425E+01  0.000E+00  0.000E+00  0.000E+00  1.02792E+03  2.011E+00  1.200E+01  2.400E-02  2.716E-01
   1   14    9     7     1    1.5000E+02  1.3350E+00   1.4866E+02  0.000E+00  0.000E+00  0.000E+00  1.03987E+03  2.288E+00  5.529E+01  5.593E-01  7.957E-01
   1   13    8     7     2    1.4866E+02  1.8309E+00   1.4683E+02  0.000E+00  0.000E+00  0.000E+00  1.03478E+03  2.279E+00  5.526E+01  6.148E-01  9.927E-01
   1   13    7     7     3    1.4683E+02  1.4433E+00   1.4539E+02  0.000E+00  0.000E+00  0.000E+00  1.02969E+03  2.271E+00  5.522E+01  5.585E-01  8.615E-01
   1   13    6     8     1    2.0282E+02  1.0334E+00   2.0178E+02  0.000E+00  0.000E+00  0.000E+00  1.02503E+03  3.151E+00  4.569E+01  4.656E-01  7.398E-01
   1   13    5     8     2    2.0178E+02  2.2869E-01   2.0155E+02  0.000E+00  0.000E+00  0.000E+00  1.01877E+03  3.148E+00  4.564E+01  4.651E-01  1.639E-01
   1   13    4     8     3    2.0155E+02 -2.0703E+00   2.0362E+02  0.000E+00  0.000E+00  0.000E+00  1.01253E+03  3.153E+00  4.572E+01  4.659E+00 -1.481E-01
   1   13    3     8     4    2.0362E+02 -3.2634E+00   2.0689E+02  0.000E+00  0.000E+00  0.000E+00  1.00629E+03  3.168E+00  4.594E+01  4.682E+00 -2.324E-01
   1   13    2     8     5    2.0689E+02 -2.0910E+00   2.0898E+02  0.000E+00  0.000E+00  0.000E+00  1.00006E+03  3.184E+00  4.617E+01  4.704E+00 -1.482E-01
   1   13    1     8     6    2.0898E+02 -1.6691E+00   2.1065E+02  0.000E+00  0.000E+00  0.000E+00  9.95070E+02  3.195E+00  4.632E+01  2.832E+00 -1.964E-01
   1    8    6     9     1    0.0000E+00  0.0000E+00   0.0000E+00  0.000E+00  0.000E+00  0.000E+00  1.07875E+03  0.000E+00  4.000E+00  0.000E+00  1.000E+00
   1    8    5     9     2    0.0000E+00  0.0000E+00   0.0000E+00  0.000E+00  0.000E+00  0.000E+00  1.07825E+03  0.000E+00  4.000E+00  0.000E+00  1.000E+00





UNSATURATED ZONE PACKAGE VOLUMETRIC BUDGET FOR  TIME STEP    30 STRESS PERIOD    3
  ------------------------------------------------------------------------------



     CUMULATIVE VOLUMES      L**3       RATES FOR THIS TIME STEP      L**3/T
     ------------------                 ------------------------

           IN:                                      IN:
           ---                                      ---
        INFILTRATION =     4531073.7455          INFILTRATION =           0.8475

          OUT:                                     OUT:
          ----                                     ----
              UZF ET =     3944985.5897                UZF ET =           0.7500
        UZF RECHARGE =       73224.0000          UZF RECHARGE =       0.0000E+00

            IN - OUT =      512864.1558              IN - OUT =       9.7500E-02

          STORAGE:                                 STORAGE:
          --------                                 --------
      STORAGE CHANGE =      512864.1946        STORAGE CHANGE =       9.7500E-02

 PERCENT DISCREPANCY IS DIFFERENCE BETWEEN IN-OUT MINUS CHANGE IN STORAGE
 DIVIDED BY THE AVERAGE OF IN AND OUT TIMES 100

 PERCENT DISCREPANCY =          -0.00     PERCENT DISCREPANCY =           0.00






1
  VOLUMETRIC BUDGET FOR AGRICULTURAL FIELDS AT  END OF TIME STEP   30, STRESS PERIOD   3
  ------------------------------------------------------------------------------

     CUMULATIVE VOLUMES      L**3       RATES FOR THIS TIME STEP      L**3/T
     ------------------                 ------------------------

           IN:                                      IN:
           ---                                      ---
               AG WELLS  =           0.0000                 AG WELLS  =           0.0000
      DIVERSION SEGMENTS =           0.0000        DIVERSION SEGMENTS =           0.0000
       IRRIGATION PONDS  =           0.0000         IRRIGATION PONDS  =           0.0000
           GW IRRIGATION =           0.0000             GW IRRIGATION =           0.0000
           SW IRRIGATION =           0.0000             SW IRRIGATION =           0.0000
        SYSTEM LOSSES GW =           0.0000          SYSTEM LOSSES GW =           0.0000
        SYSTEM LOSSES SW =           0.0000          SYSTEM LOSSES SW =           0.0000

                TOTAL IN =           0.0000                  TOTAL IN =           0.0000

          OUT:                                     OUT:
          ----                                     ----
               AG WELLS  =           0.0000                 AG WELLS  =           0.0000
      DIVERSION SEGMENTS =           0.0000        DIVERSION SEGMENTS =           0.0000
       IRRIGATION PONDS  =           0.0000         IRRIGATION PONDS  =           0.0000
           GW IRRIGATION =           0.0000             GW IRRIGATION =           0.0000
           SW IRRIGATION =           0.0000             SW IRRIGATION =           0.0000
        SYSTEM LOSSES GW =           0.0000          SYSTEM LOSSES GW =           0.0000
        SYSTEM LOSSES SW =           0.0000          SYSTEM LOSSES SW =           0.0000

               TOTAL OUT =           0.0000                 TOTAL OUT =           0.0000

                IN - OUT =           0.0000                  IN - OUT =           0.0000

     PERCENT DISCREPANCY =           0.00         PERCENT DISCREPANCY =           0.00



1
  VOLUMETRIC BUDGET FOR ENTIRE MODEL AT END OF TIME STEP   30, STRESS PERIOD   3
  ------------------------------------------------------------------------------

     CUMULATIVE VOLUMES      L**3       RATES FOR THIS TIME STEP      L**3/T
     ------------------                 ------------------------

           IN:                                      IN:
           ---                                      ---
             STORAGE     =     3122516.0000               STORAGE     =           0.4872
       CONSTANT HEAD     =           0.0000         CONSTANT HEAD     =           0.0000
     HEAD DEP BOUNDS     =     1527280.1250       HEAD DEP BOUNDS     =           0.2857
      STREAM LEAKAGE     =    61979672.0000        STREAM LEAKAGE     =          12.8226
        UZF RECHARGE     =       73223.9531          UZF RECHARGE     =           0.0000
               GW ET     =           0.0000                 GW ET     =           0.0000
     SURFACE LEAKAGE     =           0.0000       SURFACE LEAKAGE     =           0.0000
           AG WELLS      =           0.0000             AG WELLS      =           0.0000

                TOTAL IN =    66702692.0000                  TOTAL IN =          13.5955

          OUT:                                     OUT:
          ----                                     ----
             STORAGE     =     9107252.0000               STORAGE     =           4.2117
       CONSTANT HEAD     =           0.0000         CONSTANT HEAD     =           0.0000
     HEAD DEP BOUNDS     =     1544993.8750       HEAD DEP BOUNDS     =           0.2910
      STREAM LEAKAGE     =    56052144.0000        STREAM LEAKAGE     =           9.0938
        UZF RECHARGE     =           0.0000          UZF RECHARGE     =           0.0000
               GW ET     =           0.0000                 GW ET     =           0.0000
     SURFACE LEAKAGE     =           0.0000       SURFACE LEAKAGE     =           0.0000
           AG WELLS      =           0.0000             AG WELLS      =           0.0000

               TOTAL OUT =    66704392.0000                 TOTAL OUT =          13.5965

                IN - OUT =       -1700.0000                  IN - OUT =      -1.0576E-03

     PERCENT DISCREPANCY =          -0.00         PERCENT DISCREPANCY =          -0.01






         TIME SUMMARY AT END OF TIME STEP   30 IN STRESS PERIOD    3
                    SECONDS     MINUTES      HOURS       DAYS        YEARS
                    -----------------------------------------------------------
   TIME STEP LENGTH  87667.      1461.1      24.352      1.0147     2.77799E-03
 STRESS PERIOD TIME 2.63000E+06  43833.      730.56      30.440     8.33397E-02
         TOTAL TIME 5.34640E+06  89107.      1485.1      61.880     0.16942    
1
1
                            STRESS PERIOD NO.    4, LENGTH =   2630000.    
                            -----------------------------------------------

                              NUMBER OF TIME STEPS =    30

                               MULTIPLIER FOR DELT =     1.000

                            INITIAL TIME STEP SIZE =   87666.66    

 REUSING NON-PARAMETER GHB CELLS FROM LAST STRESS PERIOD

      2 GHB CELLS

 REUSING STREAM SEGMENT DATA FROM LAST STRESS PERIOD



            AREAL INFILTRATION RATE
 READING ON UNIT   19 WITH FORMAT: (FREE)              

            1           2           3           4           5           6           7           8           9          10
 ........................................................................................................................
   1   1.0000E-10  2.0000E-10   0.000       0.000       0.000       0.000       0.000       0.000       0.000       0.000    
   2   2.0000E-10  1.0000E-10  2.0000E-10   0.000       0.000      8.0000E-10  8.0000E-10  5.0000E-10   0.000       0.000    
   3    0.000      5.0000E-10  1.0000E-10  1.0000E-10  8.0000E-10  8.0000E-10  5.0000E-10  5.0000E-10   0.000       0.000    
   4   8.0000E-10  5.0000E-10  1.0000E-10  1.0000E-10  1.0000E-10  1.0000E-10  1.0000E-10  1.0000E-10  2.0000E-10   0.000    
   5   8.0000E-10  5.0000E-10  1.0000E-10  1.0000E-10  1.0000E-10  1.0000E-10  1.0000E-10  1.0000E-10  1.0000E-10  1.0000E-10
   6   8.0000E-10  5.0000E-10  5.0000E-10  2.0000E-10  2.0000E-10  1.0000E-10  1.0000E-10  1.0000E-10  1.0000E-10  5.0000E-10
   7   8.0000E-10  5.0000E-10  5.0000E-10  2.0000E-10  2.0000E-10  1.0000E-10  1.0000E-10  2.0000E-10  2.0000E-10   0.000    
   8    0.000      5.0000E-10  5.0000E-10  2.0000E-10  2.0000E-10  1.0000E-10  1.0000E-10  2.0000E-10  5.0000E-10   0.000    
   9    0.000      5.0000E-10  5.0000E-10  2.0000E-10  2.0000E-10  1.0000E-10  1.0000E-10  2.0000E-10  5.0000E-10   0.000    
  10    0.000      5.0000E-10  5.0000E-10  2.0000E-10  2.0000E-10  1.0000E-10  1.0000E-10  2.0000E-10  5.0000E-10  8.0000E-10
  11    0.000      1.0000E-10  1.0000E-10  1.0000E-10  1.0000E-10  1.0000E-10  1.0000E-10  2.0000E-10  5.0000E-10   0.000    
  12   1.0000E-10  1.0000E-10  1.0000E-10  1.0000E-10  1.0000E-10  1.0000E-10  1.0000E-10  1.0000E-10  2.0000E-10   0.000    
  13   1.0000E-10  1.0000E-10  2.0000E-10  2.0000E-10  2.0000E-10  2.0000E-10  2.0000E-10  1.0000E-10  1.0000E-10   0.000    
  14    0.000      2.0000E-10  5.0000E-10  5.0000E-10  5.0000E-10  5.0000E-10  5.0000E-10  2.0000E-10  1.0000E-10   0.000    
  15    0.000       0.000      8.0000E-10  8.0000E-10  8.0000E-10  8.0000E-10   0.000       0.000       0.000       0.000    

                  ET RATE =  5.000000E-10

 USING ET EXTINCTION DEPTH FROM PREVIOUS STRESS PERIOD. CURRENT PERIOD IS:       4

 USING EXTINCTION WATER CONTENT FROM PREVIOUS STRESS PERIOD. CURRENT PERIOD IS:       4

 USING AIR ENTRY PRESSURE FROM PREVIOUS STRESS PERIOD. CURRENT PERIOD IS:       4

 USING ROOT PRESSURE HEAD FROM PREVIOUS STRESS PERIOD. CURRENT PERIOD IS:       4

 USING ROOT ACTIVITY FROM PREVIOUS STRESS PERIOD. CURRENT PERIOD IS:       4

 PROCESSING AG STRESS PERIOD DATA

 READING AG STRESS PERIOD DATA

 READING IRRIGATION SEGMENT

 READING IRRIGATION WELL

 READING SUPPLEMENTAL WELL

 NO IRRPOND OR REUSING IRRPOND DATA FROM LAST STRESS PERIOD

 END PROCESSING AG STRESS PERIOD DATA OPTIONS
 
 SOLVING FOR HEAD 
                                                   Max.-Head-Change                         Max.-Flux-Residual
  Residual-Control   Outer-Iter.   Inner-Iter.     Column Row Layer    Maximum-Head-Change  Column Row Layer    Maximum-Flux-Residual          L2-NORM 
          0                 1           2             2   13     1       0.9722706591E-02       4   13    1         0.5574255494E+00      0.1192908535E+01
          0                 2           2             4   13     1      -0.9333061353E-03       4   13    1        -0.5513982280E-01      0.1166980764E+00
          0                 3           1             4   13     1       0.6258911565E-04       4   13    1         0.3801787017E-02      0.7929388182E-02

    ------------------------------------------------
       NWT REQUIRED            3 OUTER ITERATIONS 
       AND A TOTAL OF          5 INNER ITERATIONS.
    ------------------------------------------------

 NO OUTPUT CONTROL FOR STRESS PERIOD    4   TIME STEP    1
 
 SOLVING FOR HEAD 
                                                   Max.-Head-Change                         Max.-Flux-Residual
  Residual-Control   Outer-Iter.   Inner-Iter.     Column Row Layer    Maximum-Head-Change  Column Row Layer    Maximum-Flux-Residual          L2-NORM 
          0                 1           2             2   13     1       0.8971061845E-02       2   13    1         0.5067236770E+00      0.1125586528E+01
          0                 2           2             4   13     1      -0.8448244803E-03       4   13    1        -0.4987501123E-01      0.1102710026E+00
          0                 3           1             4   13     1       0.5665902957E-04       4   13    1         0.3438980787E-02      0.7503697694E-02

    ------------------------------------------------
       NWT REQUIRED            3 OUTER ITERATIONS 
       AND A TOTAL OF          5 INNER ITERATIONS.
    ------------------------------------------------

 NO OUTPUT CONTROL FOR STRESS PERIOD    4   TIME STEP    2
 
 SOLVING FOR HEAD 
                                                   Max.-Head-Change                         Max.-Flux-Residual
  Residual-Control   Outer-Iter.   Inner-Iter.     Column Row Layer    Maximum-Head-Change  Column Row Layer    Maximum-Flux-Residual          L2-NORM 
          0                 1           2             2   13     1       0.8278300461E-02       2   13    1         0.4675348665E+00      0.1065423577E+01
          0                 2           2             2   13     1      -0.7684626531E-03       4   13    1        -0.4514450367E-01      0.1044548324E+00
          0                 3           1             4   13     1       0.5130001029E-04       4   13    1         0.3111364638E-02      0.7117577445E-02

    ------------------------------------------------
       NWT REQUIRED            3 OUTER ITERATIONS 
       AND A TOTAL OF          5 INNER ITERATIONS.
    ------------------------------------------------

 NO OUTPUT CONTROL FOR STRESS PERIOD    4   TIME STEP    3
 
 SOLVING FOR HEAD 
                                                   Max.-Head-Change                         Max.-Flux-Residual
  Residual-Control   Outer-Iter.   Inner-Iter.     Column Row Layer    Maximum-Head-Change  Column Row Layer    Maximum-Flux-Residual          L2-NORM 
          0                 1           2             2   13     1       0.7639674698E-02       2   13    1         0.4314096696E+00      0.1011718689E+01
          0                 2           2             2   13     1      -0.7094780376E-03       2   13    1        -0.4118208294E-01      0.9932724014E-01
          0                 3           1             4   13     1       0.4655574285E-04       4   13    1         0.2822035290E-02      0.6780229549E-02

    ------------------------------------------------
       NWT REQUIRED            3 OUTER ITERATIONS 
       AND A TOTAL OF          5 INNER ITERATIONS.
    ------------------------------------------------

 NO OUTPUT CONTROL FOR STRESS PERIOD    4   TIME STEP    4
 
 SOLVING FOR HEAD 
                                                   Max.-Head-Change                         Max.-Flux-Residual
  Residual-Control   Outer-Iter.   Inner-Iter.     Column Row Layer    Maximum-Head-Change  Column Row Layer    Maximum-Flux-Residual          L2-NORM 
          0                 1           2             2   13     1       0.7051134970E-02       2   13    1         0.3981196161E+00      0.9638256189E+00
          0                 2           2             2   13     1      -0.6550642219E-03       2   13    1        -0.3801806407E-01      0.9471600239E-01
          0                 3           1             2    2     1       0.4352505581E-04       4   13    1         0.2555252590E-02      0.6476046340E-02

    ------------------------------------------------
       NWT REQUIRED            3 OUTER ITERATIONS 
       AND A TOTAL OF          5 INNER ITERATIONS.
    ------------------------------------------------

 NO OUTPUT CONTROL FOR STRESS PERIOD    4   TIME STEP    5
 
 SOLVING FOR HEAD 
                                                   Max.-Head-Change                         Max.-Flux-Residual
  Residual-Control   Outer-Iter.   Inner-Iter.     Column Row Layer    Maximum-Head-Change  Column Row Layer    Maximum-Flux-Residual          L2-NORM 
          0                 1           2             2    2     1       0.6530578794E-02       2   13    1         0.3674340446E+00      0.9211195136E+00
          0                 2           2             2    2     1      -0.6352488475E-03       2   13    1        -0.3510025729E-01      0.9062757206E-01
          0                 3           1             2    2     1       0.4325807581E-04       2    2    1         0.2386429274E-02      0.6206163982E-02

    ------------------------------------------------
       NWT REQUIRED            3 OUTER ITERATIONS 
       AND A TOTAL OF          5 INNER ITERATIONS.
    ------------------------------------------------

 NO OUTPUT CONTROL FOR STRESS PERIOD    4   TIME STEP    6
 
 SOLVING FOR HEAD 
                                                   Max.-Head-Change                         Max.-Flux-Residual
  Residual-Control   Outer-Iter.   Inner-Iter.     Column Row Layer    Maximum-Head-Change  Column Row Layer    Maximum-Flux-Residual          L2-NORM 
          0                 1           2             2    2     1       0.6490744694E-02       2   13    1         0.3391565589E+00      0.8830872342E+00
          0                 2           2             2    2     1      -0.6313740483E-03       2    2    1        -0.3388241289E-01      0.8698754178E-01
          0                 3           1             2    2     1       0.4299421683E-04       2    2    1         0.2371768941E-02      0.5966535889E-02

    ------------------------------------------------
       NWT REQUIRED            3 OUTER ITERATIONS 
       AND A TOTAL OF          5 INNER ITERATIONS.
    ------------------------------------------------

 NO OUTPUT CONTROL FOR STRESS PERIOD    4   TIME STEP    7
 
 SOLVING FOR HEAD 
                                                   Max.-Head-Change                         Max.-Flux-Residual
  Residual-Control   Outer-Iter.   Inner-Iter.     Column Row Layer    Maximum-Head-Change  Column Row Layer    Maximum-Flux-Residual          L2-NORM 
          0                 1           2             2    2     1       0.6451547572E-02       2    2    1         0.3367622684E+00      0.8492150641E+00
          0                 2           2             2    2     1      -0.6275612092E-03       2    2    1        -0.3367632998E-01      0.8374820532E-01
          0                 3           1             2    2     1       0.4273457702E-04       2    2    1         0.2357343149E-02      0.5753731505E-02

    ------------------------------------------------
       NWT REQUIRED            3 OUTER ITERATIONS 
       AND A TOTAL OF          5 INNER ITERATIONS.
    ------------------------------------------------

 NO OUTPUT CONTROL FOR STRESS PERIOD    4   TIME STEP    8
 
 SOLVING FOR HEAD 
                                                   Max.-Head-Change                         Max.-Flux-Residual
  Residual-Control   Outer-Iter.   Inner-Iter.     Column Row Layer    Maximum-Head-Change  Column Row Layer    Maximum-Flux-Residual          L2-NORM 
          0                 1           2             2    2     1       0.6412804297E-02       2    2    1         0.3347254048E+00      0.8190625492E+00
          0                 2           2             2    2     1      -0.6237925182E-03       2    2    1        -0.3347264186E-01      0.8086663199E-01
          0                 3           1             2    2     1       0.4247794320E-04       2    2    1         0.2343084980E-02      0.5564618212E-02

    ------------------------------------------------
       NWT REQUIRED            3 OUTER ITERATIONS 
       AND A TOTAL OF          5 INNER ITERATIONS.
    ------------------------------------------------

 NO OUTPUT CONTROL FOR STRESS PERIOD    4   TIME STEP    9
 
 SOLVING FOR HEAD 
                                                   Max.-Head-Change                         Max.-Flux-Residual
  Residual-Control   Outer-Iter.   Inner-Iter.     Column Row Layer    Maximum-Head-Change  Column Row Layer    Maximum-Flux-Residual          L2-NORM 
          0                 1           2             2    2     1       0.6374594176E-02       2    2    1         0.3327166124E+00      0.7921948598E+00
          0                 2           2             2    2     1      -0.6200756891E-03       2    2    1        -0.3327176089E-01      0.7829830130E-01
          0                 3           1             2    2     1       0.4222484078E-04       2    2    1         0.2329023318E-02      0.5395899446E-02

    ------------------------------------------------
       NWT REQUIRED            3 OUTER ITERATIONS 
       AND A TOTAL OF          5 INNER ITERATIONS.
    ------------------------------------------------

 NO OUTPUT CONTROL FOR STRESS PERIOD    4   TIME STEP   10
 
 SOLVING FOR HEAD 
                                                   Max.-Head-Change                         Max.-Flux-Residual
  Residual-Control   Outer-Iter.   Inner-Iter.     Column Row Layer    Maximum-Head-Change  Column Row Layer    Maximum-Flux-Residual          L2-NORM 
          0                 1           2             2    2     1       0.6336821867E-02       2    2    1         0.3307309230E+00      0.7682456956E+00
          0                 2           2             2    2     1      -0.6164014483E-03       2    2    1        -0.3307319026E-01      0.7600930606E-01
          0                 3           1             2    2     1       0.4197463926E-04       2    2    1         0.2315123403E-02      0.5245474927E-02

    ------------------------------------------------
       NWT REQUIRED            3 OUTER ITERATIONS 
       AND A TOTAL OF          5 INNER ITERATIONS.
    ------------------------------------------------

 NO OUTPUT CONTROL FOR STRESS PERIOD    4   TIME STEP   11
 
 SOLVING FOR HEAD 
                                                   Max.-Head-Change                         Max.-Flux-Residual
  Residual-Control   Outer-Iter.   Inner-Iter.     Column Row Layer    Maximum-Head-Change  Column Row Layer    Maximum-Flux-Residual          L2-NORM 
          0                 1           2             2    2     1       0.6299566920E-02       2    2    1         0.3287724739E+00      0.7468807676E+00
          0                 2           2             2    2     1      -0.6127775330E-03       2    2    1        -0.3287734372E-01      0.7396780827E-01
          0                 3           1             2    2     1       0.4172786406E-04       2    2    1         0.2301414147E-02      0.5111291030E-02

    ------------------------------------------------
       NWT REQUIRED            3 OUTER ITERATIONS 
       AND A TOTAL OF          5 INNER ITERATIONS.
    ------------------------------------------------

 NO OUTPUT CONTROL FOR STRESS PERIOD    4   TIME STEP   12
 
 SOLVING FOR HEAD 
                                                   Max.-Head-Change                         Max.-Flux-Residual
  Residual-Control   Outer-Iter.   Inner-Iter.     Column Row Layer    Maximum-Head-Change  Column Row Layer    Maximum-Flux-Residual          L2-NORM 
          0                 1           2             2    2     1       0.6262821188E-02       2    2    1         0.3268408495E+00      0.7278023089E+00
          0                 2           2             2    2     1      -0.6092031506E-03       2    2    1        -0.3268417964E-01      0.7214403746E-01
          0                 3           1             2    2     1       0.4148446241E-04       2    2    1         0.2287892682E-02      0.4991419050E-02

    ------------------------------------------------
       NWT REQUIRED            3 OUTER ITERATIONS 
       AND A TOTAL OF          5 INNER ITERATIONS.
    ------------------------------------------------

 NO OUTPUT CONTROL FOR STRESS PERIOD    4   TIME STEP   13
 
 SOLVING FOR HEAD 
                                                   Max.-Head-Change                         Max.-Flux-Residual
  Residual-Control   Outer-Iter.   Inner-Iter.     Column Row Layer    Maximum-Head-Change  Column Row Layer    Maximum-Flux-Residual          L2-NORM 
          0                 1           2             2    2     1       0.6226576539E-02       2    2    1         0.3249356272E+00      0.7107304552E+00
          0                 2           2             2    2     1      -0.6056775107E-03       2    2    1        -0.3249365586E-01      0.7051180458E-01
          0                 3           1             2    2     1       0.4124437939E-04       2    2    1         0.2274556003E-02      0.4884020470E-02

    ------------------------------------------------
       NWT REQUIRED            3 OUTER ITERATIONS 
       AND A TOTAL OF          5 INNER ITERATIONS.
    ------------------------------------------------

 NO OUTPUT CONTROL FOR STRESS PERIOD    4   TIME STEP   14
 
 SOLVING FOR HEAD 
                                                   Max.-Head-Change                         Max.-Flux-Residual
  Residual-Control   Outer-Iter.   Inner-Iter.     Column Row Layer    Maximum-Head-Change  Column Row Layer    Maximum-Flux-Residual          L2-NORM 
          0                 1           2             2    2     1       0.6190738554E-02       2    2    1         0.3230518444E+00      0.6954327544E+00
          0                 2           2             2    2     1      -0.6021914291E-03       2    2    1        -0.3230527603E-01      0.6904741996E-01
          0                 3           1             2    2     1       0.4100699065E-04       2    2    1         0.2261369448E-02      0.4787166760E-02

    ------------------------------------------------
       NWT REQUIRED            3 OUTER ITERATIONS 
       AND A TOTAL OF          5 INNER ITERATIONS.
    ------------------------------------------------

 NO OUTPUT CONTROL FOR STRESS PERIOD    4   TIME STEP   15
 
 SOLVING FOR HEAD 
                                                   Max.-Head-Change                         Max.-Flux-Residual
  Residual-Control   Outer-Iter.   Inner-Iter.     Column Row Layer    Maximum-Head-Change  Column Row Layer    Maximum-Flux-Residual          L2-NORM 
          0                 1           2             2    2     1       0.6155387396E-02       2    2    1         0.3211936876E+00      0.6816965238E+00
          0                 2           2             2    2     1      -0.5987527019E-03       2    2    1        -0.3211945882E-01      0.6773269871E-01
          0                 3           1             2    2     1       0.4077282588E-04       2    2    1         0.2248362238E-02      0.4701235123E-02

    ------------------------------------------------
       NWT REQUIRED            3 OUTER ITERATIONS 
       AND A TOTAL OF          5 INNER ITERATIONS.
    ------------------------------------------------

 NO OUTPUT CONTROL FOR STRESS PERIOD    4   TIME STEP   16
 
 SOLVING FOR HEAD 
                                                   Max.-Head-Change                         Max.-Flux-Residual
  Residual-Control   Outer-Iter.   Inner-Iter.     Column Row Layer    Maximum-Head-Change  Column Row Layer    Maximum-Flux-Residual          L2-NORM 
          0                 1           2             2    2     1       0.6120514978E-02       2    2    1         0.3193607723E+00      0.6693406811E+00
          0                 2           2             2    2     1      -0.5953605448E-03       2    2    1        -0.3193616583E-01      0.6654869535E-01
          0                 3           1             2    2     1       0.4054183324E-04       2    2    1         0.2235531750E-02      0.4622964601E-02

    ------------------------------------------------
       NWT REQUIRED            3 OUTER ITERATIONS 
       AND A TOTAL OF          5 INNER ITERATIONS.
    ------------------------------------------------

 NO OUTPUT CONTROL FOR STRESS PERIOD    4   TIME STEP   17
 
 SOLVING FOR HEAD 
                                                   Max.-Head-Change                         Max.-Flux-Residual
  Residual-Control   Outer-Iter.   Inner-Iter.     Column Row Layer    Maximum-Head-Change  Column Row Layer    Maximum-Flux-Residual          L2-NORM 
          0                 1           2             2    2     1       0.6086114131E-02       2    2    1         0.3175526791E+00      0.6581834074E+00
          0                 2           2             2    2     1      -0.5920142585E-03       2    2    1        -0.3175535508E-01      0.6547861353E-01
          0                 3           1             2    2     1       0.4031396327E-04       2    2    1         0.2222874988E-02      0.4552374955E-02

    ------------------------------------------------
       NWT REQUIRED            3 OUTER ITERATIONS 
       AND A TOTAL OF          5 INNER ITERATIONS.
    ------------------------------------------------

 NO OUTPUT CONTROL FOR STRESS PERIOD    4   TIME STEP   18
 
 SOLVING FOR HEAD 
                                                   Max.-Head-Change                         Max.-Flux-Residual
  Residual-Control   Outer-Iter.   Inner-Iter.     Column Row Layer    Maximum-Head-Change  Column Row Layer    Maximum-Flux-Residual          L2-NORM 
          0                 1           2             2    2     1       0.6052090883E-02       2    2    1         0.3157644944E+00      0.6480871972E+00
          0                 2           2             2    2     1      -0.5887047028E-03       2    2    1        -0.3157653520E-01      0.6450909565E-01
          0                 3           1             2    2     1       0.4008859493E-04       2    2    1         0.2210357589E-02      0.4488342151E-02

    ------------------------------------------------
       NWT REQUIRED            3 OUTER ITERATIONS 
       AND A TOTAL OF          5 INNER ITERATIONS.
    ------------------------------------------------

 NO OUTPUT CONTROL FOR STRESS PERIOD    4   TIME STEP   19
 
 SOLVING FOR HEAD 
                                                   Max.-Head-Change                         Max.-Flux-Residual
  Residual-Control   Outer-Iter.   Inner-Iter.     Column Row Layer    Maximum-Head-Change  Column Row Layer    Maximum-Flux-Residual          L2-NORM 
          0                 1           2             2    2     1       0.6018525482E-02       2    2    1         0.3140004295E+00      0.6389240942E+00
          0                 2           2             2    2     1      -0.5854396836E-03       2    2    1        -0.3140012732E-01      0.6362714457E-01
          0                 3           1             2    2     1       0.3986625980E-04       2    2    1         0.2198009063E-02      0.4429577986E-02

    ------------------------------------------------
       NWT REQUIRED            3 OUTER ITERATIONS 
       AND A TOTAL OF          5 INNER ITERATIONS.
    ------------------------------------------------

 NO OUTPUT CONTROL FOR STRESS PERIOD    4   TIME STEP   20
 
 SOLVING FOR HEAD 
                                                   Max.-Head-Change                         Max.-Flux-Residual
  Residual-Control   Outer-Iter.   Inner-Iter.     Column Row Layer    Maximum-Head-Change  Column Row Layer    Maximum-Flux-Residual          L2-NORM 
          0                 1           2             2    2     1       0.5985410749E-02       2    2    1         0.3122601035E+00      0.6305800237E+00
          0                 2           2             2    2     1      -0.5822185030E-03       2    2    1        -0.3122609338E-01      0.6282363216E-01
          0                 3           1             2    2     1       0.3964690959E-04       2    2    1         0.2185826703E-02      0.4376402763E-02

    ------------------------------------------------
       NWT REQUIRED            3 OUTER ITERATIONS 
       AND A TOTAL OF          5 INNER ITERATIONS.
    ------------------------------------------------

 NO OUTPUT CONTROL FOR STRESS PERIOD    4   TIME STEP   21
 
 SOLVING FOR HEAD 
                                                   Max.-Head-Change                         Max.-Flux-Residual
  Residual-Control   Outer-Iter.   Inner-Iter.     Column Row Layer    Maximum-Head-Change  Column Row Layer    Maximum-Flux-Residual          L2-NORM 
          0                 1           2             2    2     1       0.5952739973E-02       2    2    1         0.3105431442E+00      0.6229689428E+00
          0                 2           2             2    2     1      -0.5790405076E-03       2    2    1        -0.3105439614E-01      0.6208896390E-01
          0                 3           1             2    2     1       0.3943050005E-04       2    2    1         0.2173807899E-02      0.4326407697E-02

    ------------------------------------------------
       NWT REQUIRED            3 OUTER ITERATIONS 
       AND A TOTAL OF          5 INNER ITERATIONS.
    ------------------------------------------------

 NO OUTPUT CONTROL FOR STRESS PERIOD    4   TIME STEP   22
 
 SOLVING FOR HEAD 
                                                   Max.-Head-Change                         Max.-Flux-Residual
  Residual-Control   Outer-Iter.   Inner-Iter.     Column Row Layer    Maximum-Head-Change  Column Row Layer    Maximum-Flux-Residual          L2-NORM 
          0                 1           2             2    2     1       0.5920419299E-02       2    2    1         0.3088446607E+00      0.6159849811E+00
          0                 2           2             2    2     1      -0.5758965676E-03       2    2    1        -0.3088454650E-01      0.6141536588E-01
          0                 3           1             2    2     1       0.3921640919E-04       2    2    1         0.2161918418E-02      0.4282366592E-02

    ------------------------------------------------
       NWT REQUIRED            3 OUTER ITERATIONS 
       AND A TOTAL OF          5 INNER ITERATIONS.
    ------------------------------------------------

 NO OUTPUT CONTROL FOR STRESS PERIOD    4   TIME STEP   23
 
 SOLVING FOR HEAD 
                                                   Max.-Head-Change                         Max.-Flux-Residual
  Residual-Control   Outer-Iter.   Inner-Iter.     Column Row Layer    Maximum-Head-Change  Column Row Layer    Maximum-Flux-Residual          L2-NORM 
          0                 1           2             2    2     1       0.5888529809E-02       2    2    1         0.3071688723E+00      0.6095689376E+00
          0                 2           2             2    2     1      -0.5727945709E-03       2    2    1        -0.3071696638E-01      0.6079455114E-01
          0                 3           1             2    2     1       0.3900517546E-04       2    2    1         0.2150187841E-02      0.4240600404E-02

    ------------------------------------------------
       NWT REQUIRED            3 OUTER ITERATIONS 
       AND A TOTAL OF          5 INNER ITERATIONS.
    ------------------------------------------------

 NO OUTPUT CONTROL FOR STRESS PERIOD    4   TIME STEP   24
 
 SOLVING FOR HEAD 
                                                   Max.-Head-Change                         Max.-Flux-Residual
  Residual-Control   Outer-Iter.   Inner-Iter.     Column Row Layer    Maximum-Head-Change  Column Row Layer    Maximum-Flux-Residual          L2-NORM 
          0                 1           2             2    2     1       0.5857064406E-02       2    2    1         0.3055154403E+00      0.6036483312E+00
          0                 2           2             2    2     1      -0.5697338265E-03       2    2    1        -0.3055162196E-01      0.6022065514E-01
          0                 3           1             2    2     1       0.3879674985E-04       2    2    1         0.2138613727E-02      0.4202236599E-02

    ------------------------------------------------
       NWT REQUIRED            3 OUTER ITERATIONS 
       AND A TOTAL OF          5 INNER ITERATIONS.
    ------------------------------------------------

 NO OUTPUT CONTROL FOR STRESS PERIOD    4   TIME STEP   25
 
 SOLVING FOR HEAD 
                                                   Max.-Head-Change                         Max.-Flux-Residual
  Residual-Control   Outer-Iter.   Inner-Iter.     Column Row Layer    Maximum-Head-Change  Column Row Layer    Maximum-Flux-Residual          L2-NORM 
          0                 1           2             2    2     1       0.5826016811E-02       2    2    1         0.3038839966E+00      0.5981780172E+00
          0                 2           2             2    2     1      -0.5667137235E-03       2    2    1        -0.3038847637E-01      0.5968992671E-01
          0                 3           1             2    2     1       0.3859109214E-04       2    2    1         0.2127193536E-02      0.4166718241E-02

    ------------------------------------------------
       NWT REQUIRED            3 OUTER ITERATIONS 
       AND A TOTAL OF          5 INNER ITERATIONS.
    ------------------------------------------------

 NO OUTPUT CONTROL FOR STRESS PERIOD    4   TIME STEP   26
 
 SOLVING FOR HEAD 
                                                   Max.-Head-Change                         Max.-Flux-Residual
  Residual-Control   Outer-Iter.   Inner-Iter.     Column Row Layer    Maximum-Head-Change  Column Row Layer    Maximum-Flux-Residual          L2-NORM 
          0                 1           2             2    2     1       0.5795293960E-02       2    2    1         0.3022696725E+00      0.5930866872E+00
          0                 2           2             2    2     1      -0.5637252105E-03       2    2    1        -0.3022704280E-01      0.5919484204E-01
          0                 3           1             2    2     1       0.3838758578E-04       2    2    1         0.2115893185E-02      0.4133396156E-02

    ------------------------------------------------
       NWT REQUIRED            3 OUTER ITERATIONS 
       AND A TOTAL OF          5 INNER ITERATIONS.
    ------------------------------------------------

 NO OUTPUT CONTROL FOR STRESS PERIOD    4   TIME STEP   27
 
 SOLVING FOR HEAD 
                                                   Max.-Head-Change                         Max.-Flux-Residual
  Residual-Control   Outer-Iter.   Inner-Iter.     Column Row Layer    Maximum-Head-Change  Column Row Layer    Maximum-Flux-Residual          L2-NORM 
          0                 1           2             2    2     1       0.5764977044E-02       2    2    1         0.3006767291E+00      0.5883461591E+00
          0                 2           2             2    2     1      -0.5607761839E-03       2    2    1        -0.3006774729E-01      0.5873281583E-01
          0                 3           1             2    2     1       0.3818676875E-04       2    2    1         0.2104742531E-02      0.4101958269E-02

    ------------------------------------------------
       NWT REQUIRED            3 OUTER ITERATIONS 
       AND A TOTAL OF          5 INNER ITERATIONS.
    ------------------------------------------------

 NO OUTPUT CONTROL FOR STRESS PERIOD    4   TIME STEP   28
 
 SOLVING FOR HEAD 
                                                   Max.-Head-Change                         Max.-Flux-Residual
  Residual-Control   Outer-Iter.   Inner-Iter.     Column Row Layer    Maximum-Head-Change  Column Row Layer    Maximum-Flux-Residual          L2-NORM 
          0                 1           2             2    2     1       0.5735060105E-02       2    2    1         0.2991048331E+00      0.5839165056E+00
          0                 2           2             2    2     1      -0.5578660642E-03       2    2    1        -0.2991055658E-01      0.5830111832E-01
          0                 3           1             2    2     1       0.3798859962E-04       2    2    1         0.2093739157E-02      0.4072782094E-02

    ------------------------------------------------
       NWT REQUIRED            3 OUTER ITERATIONS 
       AND A TOTAL OF          5 INNER ITERATIONS.
    ------------------------------------------------

 NO OUTPUT CONTROL FOR STRESS PERIOD    4   TIME STEP   29
 
 SOLVING FOR HEAD 
                                                   Max.-Head-Change                         Max.-Flux-Residual
  Residual-Control   Outer-Iter.   Inner-Iter.     Column Row Layer    Maximum-Head-Change  Column Row Layer    Maximum-Flux-Residual          L2-NORM 
          0                 1           2             2    2     1       0.4577995966E-02       2    2    1         0.2386111534E+00      0.5559196019E+00
          0                 2           2             2    2     1      -0.4453148114E-03       2    2    1        -0.2386115789E-01      0.5518052966E-01
          0                 3           1             2    2     1       0.3032428173E-04       2    2    1         0.1670281384E-02      0.3825101023E-02

    ------------------------------------------------
       NWT REQUIRED            3 OUTER ITERATIONS 
       AND A TOTAL OF          5 INNER ITERATIONS.
    ------------------------------------------------

 NO OUTPUT CONTROL FOR STRESS PERIOD    4   TIME STEP   30



 STREAM LISTING     PERIOD      4   STEP       30

 LAYER ROW COL. STREAM  RCH.  FLOW INTO     FLOW TO   FLOW OUT OF   OVRLND.     DIRECT     STREAM       STREAM     STREAM     STREAM   STREAMBED  STREAMBED
                SEG.NO.  NO.  STRM. RCH.    AQUIFER    STRM. RCH.    RUNOFF     PRECIP       ET          HEAD       DEPTH      WIDTH   CONDCTNC.   GRADIENT

   1    1    1     1     1    4.6685E+01  3.2585E-01   4.6359E+01  0.000E+00  0.000E+00  0.000E+00  1.09443E+03  1.378E+00  1.654E+01  7.443E-02  1.459E+00
   1    2    2     1     2    4.6359E+01  5.0484E-01   4.5855E+01  0.000E+00  0.000E+00  0.000E+00  1.08943E+03  1.375E+00  1.648E+01  1.154E-01  1.458E+00
   1    3    3     1     3    4.5855E+01  4.3074E-01   4.5424E+01  0.000E+00  0.000E+00  0.000E+00  1.08379E+03  1.372E+00  1.642E+01  9.852E-02  1.457E+00
   1    3    4     1     4    4.5424E+01  3.9680E-01   4.5027E+01  0.000E+00  0.000E+00  0.000E+00  1.07878E+03  1.369E+00  1.636E+01  9.082E-02  1.456E+00
   1    4    5     2     1    4.3027E+01  3.6413E-01   4.2663E+01  0.000E+00  0.000E+00  0.000E+00  1.07360E+03  1.668E+00  1.200E+01  7.800E-02  1.556E+00
   1    5    6     2     2    4.2663E+01  2.7965E-01   4.2383E+01  0.000E+00  0.000E+00  0.000E+00  1.06817E+03  1.661E+00  1.200E+01  6.000E-02  1.554E+00
   1    6    6     2     3    4.2383E+01  2.7926E-01   4.2104E+01  0.000E+00  0.000E+00  0.000E+00  1.06345E+03  1.654E+00  1.200E+01  6.000E-02  1.551E+00
   1    7    6     2     4    4.2104E+01  2.7886E-01   4.1825E+01  0.000E+00  0.000E+00  0.000E+00  1.05872E+03  1.648E+00  1.200E+01  6.000E-02  1.549E+00
   1    8    6     2     5    4.1825E+01  2.7847E-01   4.1547E+01  0.000E+00  0.000E+00  0.000E+00  1.05400E+03  1.641E+00  1.200E+01  6.000E-02  1.547E+00
   1    3    5     3     1    2.0000E+00  2.8252E-01   1.7175E+00  0.000E+00  0.000E+00  0.000E+00  1.07555E+03  1.909E+00  9.636E+00  7.227E-02  1.955E+00
   1    3    6     3     2    1.7175E+00  2.4905E-01   1.4684E+00  0.000E+00  0.000E+00  0.000E+00  1.07264E+03  1.727E+00  8.909E+00  6.682E-02  1.864E+00
   1    3    7     3     3    1.4684E+00  1.9718E-01   1.2712E+00  0.000E+00  0.000E+00  0.000E+00  1.06987E+03  1.555E+00  8.218E+00  5.547E-02  1.777E+00
   1    4    8     3     4    1.2712E+00  2.2567E-01   1.0456E+00  0.000E+00  0.000E+00  0.000E+00  1.06682E+03  1.364E+00  7.455E+00  6.709E-02  1.682E+00
   1    5    8     3     5    1.0456E+00  1.5790E-01   8.8768E-01  0.000E+00  0.000E+00  0.000E+00  1.06362E+03  1.164E+00  6.655E+00  4.991E-02  1.582E+00
   1    6    8     3     6    8.8768E-01  5.5980E-02   8.3170E-01  0.000E+00  0.000E+00  0.000E+00  1.06158E+03  1.036E+00  6.145E+00  1.844E-02  1.518E+00
   1    5   10     4     1    1.0000E+01  9.0919E-02   9.9091E+00  0.000E+00  0.000E+00  0.000E+00  1.07836E+03  6.368E-01  1.000E+01  2.500E-02  1.212E+00
   1    5    9     4     2    9.9091E+00  1.8158E-01   9.7275E+00  0.000E+00  0.000E+00  0.000E+00  1.07154E+03  6.315E-01  1.000E+01  5.000E-02  1.211E+00
   1    6    8     4     3    9.7275E+00  1.2689E-01   9.6006E+00  0.000E+00  0.000E+00  0.000E+00  1.06381E+03  6.256E-01  1.000E+01  3.500E-02  1.209E+00
   1    6    8     5     1    1.0432E+01  2.2686E-01   1.0205E+01  0.000E+00  0.000E+00  0.000E+00  1.05868E+03  6.790E-01  1.542E+01  6.166E-02  1.226E+00
   1    7    7     5     2    1.0205E+01  2.7894E-01   9.9265E+00  0.000E+00  0.000E+00  0.000E+00  1.05417E+03  6.732E-01  1.519E+01  7.594E-02  1.224E+00
   1    8    7     5     3    9.9265E+00  1.9221E-01   9.7343E+00  0.000E+00  0.000E+00  0.000E+00  1.04992E+03  6.676E-01  1.497E+01  5.241E-02  1.223E+00
   1    8    6     5     4    9.7343E+00  1.3577E-01   9.5985E+00  0.000E+00  0.000E+00  0.000E+00  1.04691E+03  6.637E-01  1.482E+01  3.706E-02  1.221E+00
   1    9    6     6     1    5.1145E+01  2.9237E-01   5.0853E+01  0.000E+00  0.000E+00  0.000E+00  1.04460E+03  1.873E+00  1.200E+01  6.000E-02  1.624E+00
   1   10    7     6     2    5.0853E+01  2.9199E-01   5.0561E+01  0.000E+00  0.000E+00  0.000E+00  1.04005E+03  1.866E+00  1.200E+01  6.000E-02  1.622E+00
   1   11    7     6     3    5.0561E+01  2.9160E-01   5.0269E+01  0.000E+00  0.000E+00  0.000E+00  1.03550E+03  1.860E+00  1.200E+01  6.000E-02  1.620E+00
   1   12    7     6     4    5.0269E+01  2.9121E-01   4.9978E+01  0.000E+00  0.000E+00  0.000E+00  1.03094E+03  1.854E+00  1.200E+01  6.000E-02  1.618E+00
   1   13    7     6     5    4.9978E+01  1.5046E-02   4.9963E+01  0.000E+00  0.000E+00  0.000E+00  1.02776E+03  1.850E+00  1.200E+01  2.400E-02  2.090E-01
   1   14    9     7     1    1.5000E+02  1.3355E+00   1.4866E+02  0.000E+00  0.000E+00  0.000E+00  1.03987E+03  2.288E+00  5.529E+01  5.593E-01  7.959E-01
   1   13    8     7     2    1.4866E+02  1.8270E+00   1.4684E+02  0.000E+00  0.000E+00  0.000E+00  1.03478E+03  2.279E+00  5.526E+01  6.148E-01  9.906E-01
   1   13    7     7     3    1.4684E+02  1.4284E+00   1.4541E+02  0.000E+00  0.000E+00  0.000E+00  1.02969E+03  2.271E+00  5.522E+01  5.585E-01  8.526E-01
   1   13    6     8     1    1.9537E+02  9.7131E-01   1.9440E+02  0.000E+00  0.000E+00  0.000E+00  1.02498E+03  3.107E+00  4.506E+01  4.591E-01  7.052E-01
   1   13    5     8     2    1.9440E+02  1.7796E-01   1.9422E+02  0.000E+00  0.000E+00  0.000E+00  1.01873E+03  3.104E+00  4.501E+01  4.586E-01  1.293E-01
   1   13    4     8     3    1.9422E+02 -2.6466E+00   1.9687E+02  0.000E+00  0.000E+00  0.000E+00  1.01249E+03  3.111E+00  4.511E+01  4.597E+00 -1.919E-01
   1   13    3     8     4    1.9687E+02 -3.8111E+00   2.0068E+02  0.000E+00  0.000E+00  0.000E+00  1.00626E+03  3.130E+00  4.539E+01  4.626E+00 -2.746E-01
   1   13    2     8     5    2.0068E+02 -2.7018E+00   2.0338E+02  0.000E+00  0.000E+00  0.000E+00  1.00002E+03  3.150E+00  4.567E+01  4.654E+00 -1.935E-01
   1   13    1     8     6    2.0338E+02 -2.0096E+00   2.0539E+02  0.000E+00  0.000E+00  0.000E+00  9.95038E+02  3.163E+00  4.587E+01  2.805E+00 -2.388E-01
   1    8    6     9     1    0.0000E+00  0.0000E+00   0.0000E+00  0.000E+00  0.000E+00  0.000E+00  1.07875E+03  0.000E+00  4.000E+00  0.000E+00  1.000E+00
   1    8    5     9     2    0.0000E+00  0.0000E+00   0.0000E+00  0.000E+00  0.000E+00  0.000E+00  1.07825E+03  0.000E+00  4.000E+00  0.000E+00  1.000E+00





UNSATURATED ZONE PACKAGE VOLUMETRIC BUDGET FOR  TIME STEP    30 STRESS PERIOD    4
  ------------------------------------------------------------------------------



     CUMULATIVE VOLUMES      L**3       RATES FOR THIS TIME STEP      L**3/T
     ------------------                 ------------------------

           IN:                                      IN:
           ---                                      ---
        INFILTRATION =     6759998.6182          INFILTRATION =           0.8475

          OUT:                                     OUT:
          ----                                     ----
              UZF ET =     5917485.4539                UZF ET =           0.7500
        UZF RECHARGE =       73224.0000          UZF RECHARGE =       0.0000E+00

            IN - OUT =      769289.1644              IN - OUT =       9.7500E-02

          STORAGE:                                 STORAGE:
          --------                                 --------
      STORAGE CHANGE =      769289.2225        STORAGE CHANGE =       9.7500E-02

 PERCENT DISCREPANCY IS DIFFERENCE BETWEEN IN-OUT MINUS CHANGE IN STORAGE
 DIVIDED BY THE AVERAGE OF IN AND OUT TIMES 100

 PERCENT DISCREPANCY =           0.00     PERCENT DISCREPANCY =           0.00






1
  VOLUMETRIC BUDGET FOR AGRICULTURAL FIELDS AT  END OF TIME STEP   30, STRESS PERIOD   4
  ------------------------------------------------------------------------------

     CUMULATIVE VOLUMES      L**3       RATES FOR THIS TIME STEP      L**3/T
     ------------------                 ------------------------

           IN:                                      IN:
           ---                                      ---
               AG WELLS  =           0.0000                 AG WELLS  =           0.0000
      DIVERSION SEGMENTS =           0.0000        DIVERSION SEGMENTS =           0.0000
       IRRIGATION PONDS  =           0.0000         IRRIGATION PONDS  =           0.0000
           GW IRRIGATION =           0.0000             GW IRRIGATION =           0.0000
           SW IRRIGATION =           0.0000             SW IRRIGATION =           0.0000
        SYSTEM LOSSES GW =           0.0000          SYSTEM LOSSES GW =           0.0000
        SYSTEM LOSSES SW =           0.0000          SYSTEM LOSSES SW =           0.0000

                TOTAL IN =           0.0000                  TOTAL IN =           0.0000

          OUT:                                     OUT:
          ----                                     ----
               AG WELLS  =           0.0000                 AG WELLS  =           0.0000
      DIVERSION SEGMENTS =           0.0000        DIVERSION SEGMENTS =           0.0000
       IRRIGATION PONDS  =           0.0000         IRRIGATION PONDS  =           0.0000
           GW IRRIGATION =           0.0000             GW IRRIGATION =           0.0000
           SW IRRIGATION =           0.0000             SW IRRIGATION =           0.0000
        SYSTEM LOSSES GW =           0.0000          SYSTEM LOSSES GW =           0.0000
        SYSTEM LOSSES SW =           0.0000          SYSTEM LOSSES SW =           0.0000

               TOTAL OUT =           0.0000                 TOTAL OUT =           0.0000

                IN - OUT =           0.0000                  IN - OUT =           0.0000

     PERCENT DISCREPANCY =           0.00         PERCENT DISCREPANCY =           0.00



1
  VOLUMETRIC BUDGET FOR ENTIRE MODEL AT END OF TIME STEP   30, STRESS PERIOD   4
  ------------------------------------------------------------------------------

     CUMULATIVE VOLUMES      L**3       RATES FOR THIS TIME STEP      L**3/T
     ------------------                 ------------------------

           IN:                                      IN:
           ---                                      ---
             STORAGE     =     4352803.5000               STORAGE     =           0.9339
       CONSTANT HEAD     =           0.0000         CONSTANT HEAD     =           0.0000
     HEAD DEP BOUNDS     =     2278729.0000       HEAD DEP BOUNDS     =           0.2857
      STREAM LEAKAGE     =    95891936.0000        STREAM LEAKAGE     =          12.4623
        UZF RECHARGE     =       73223.9531          UZF RECHARGE     =           0.0000
               GW ET     =           0.0000                 GW ET     =           0.0000
     SURFACE LEAKAGE     =           0.0000       SURFACE LEAKAGE     =           0.0000
           AG WELLS      =           0.0000             AG WELLS      =           0.0000

                TOTAL IN =   102596696.0000                  TOTAL IN =          13.6819

          OUT:                                     OUT:
          ----                                     ----
             STORAGE     =    18028010.0000               STORAGE     =           2.2164
       CONSTANT HEAD     =           0.0000         CONSTANT HEAD     =           0.0000
     HEAD DEP BOUNDS     =     2316606.7500       HEAD DEP BOUNDS     =           0.2947
      STREAM LEAKAGE     =    82252224.0000        STREAM LEAKAGE     =          11.1691
        UZF RECHARGE     =           0.0000          UZF RECHARGE     =           0.0000
               GW ET     =        3763.8860                 GW ET     =       2.1214E-03
     SURFACE LEAKAGE     =           0.0000       SURFACE LEAKAGE     =           0.0000
           AG WELLS      =           0.0000             AG WELLS      =           0.0000

               TOTAL OUT =   102600600.0000                 TOTAL OUT =          13.6823

                IN - OUT =       -3904.0000                  IN - OUT =      -3.6430E-04

     PERCENT DISCREPANCY =          -0.00         PERCENT DISCREPANCY =          -0.00






         TIME SUMMARY AT END OF TIME STEP   30 IN STRESS PERIOD    4
                    SECONDS     MINUTES      HOURS       DAYS        YEARS
                    -----------------------------------------------------------
   TIME STEP LENGTH  87667.      1461.1      24.352      1.0147     2.77799E-03
 STRESS PERIOD TIME 2.63000E+06  43833.      730.56      30.440     8.33397E-02
         TOTAL TIME 7.97639E+06 1.32940E+05  2215.7      92.319     0.25276    
1
1
                            STRESS PERIOD NO.    5, LENGTH =   2630000.    
                            -----------------------------------------------

                              NUMBER OF TIME STEPS =    30

                               MULTIPLIER FOR DELT =     1.000

                            INITIAL TIME STEP SIZE =   87666.66    

 REUSING NON-PARAMETER GHB CELLS FROM LAST STRESS PERIOD

      2 GHB CELLS

 REUSING STREAM SEGMENT DATA FROM LAST STRESS PERIOD



            AREAL INFILTRATION RATE
 READING ON UNIT   19 WITH FORMAT: (FREE)              

            1           2           3           4           5           6           7           8           9          10
 ........................................................................................................................
   1   1.0000E-10  2.0000E-10   0.000       0.000       0.000       0.000       0.000       0.000       0.000       0.000    
   2   2.0000E-10  1.0000E-10  2.0000E-10   0.000       0.000      8.0000E-10  8.0000E-10  5.0000E-10   0.000       0.000    
   3    0.000      5.0000E-10  1.0000E-10  1.0000E-10  8.0000E-10  8.0000E-10  5.0000E-10  5.0000E-10   0.000       0.000    
   4   8.0000E-10  5.0000E-10  1.0000E-10  1.0000E-10  1.0000E-10  1.0000E-10  1.0000E-10  1.0000E-10  2.0000E-10   0.000    
   5   8.0000E-10  5.0000E-10  1.0000E-10  1.0000E-10  1.0000E-10  1.0000E-10  1.0000E-10  1.0000E-10  1.0000E-10  1.0000E-10
   6   8.0000E-10  5.0000E-10  5.0000E-10  2.0000E-10  2.0000E-10  1.0000E-10  1.0000E-10  1.0000E-10  1.0000E-10  5.0000E-10
   7   8.0000E-10  5.0000E-10  5.0000E-10  2.0000E-10  2.0000E-10  1.0000E-10  1.0000E-10  2.0000E-10  2.0000E-10   0.000    
   8    0.000      5.0000E-10  5.0000E-10  2.0000E-10  2.0000E-10  1.0000E-10  1.0000E-10  2.0000E-10  5.0000E-10   0.000    
   9    0.000      5.0000E-10  5.0000E-10  2.0000E-10  2.0000E-10  1.0000E-10  1.0000E-10  2.0000E-10  5.0000E-10   0.000    
  10    0.000      5.0000E-10  5.0000E-10  2.0000E-10  2.0000E-10  1.0000E-10  1.0000E-10  2.0000E-10  5.0000E-10  8.0000E-10
  11    0.000      1.0000E-10  1.0000E-10  1.0000E-10  1.0000E-10  1.0000E-10  1.0000E-10  2.0000E-10  5.0000E-10   0.000    
  12   1.0000E-10  1.0000E-10  1.0000E-10  1.0000E-10  1.0000E-10  1.0000E-10  1.0000E-10  1.0000E-10  2.0000E-10   0.000    
  13   1.0000E-10  1.0000E-10  2.0000E-10  2.0000E-10  2.0000E-10  2.0000E-10  2.0000E-10  1.0000E-10  1.0000E-10   0.000    
  14    0.000      2.0000E-10  5.0000E-10  5.0000E-10  5.0000E-10  5.0000E-10  5.0000E-10  2.0000E-10  1.0000E-10   0.000    
  15    0.000       0.000      8.0000E-10  8.0000E-10  8.0000E-10  8.0000E-10   0.000       0.000       0.000       0.000    

                  ET RATE =  2.500000E-08

 USING ET EXTINCTION DEPTH FROM PREVIOUS STRESS PERIOD. CURRENT PERIOD IS:       5

 USING EXTINCTION WATER CONTENT FROM PREVIOUS STRESS PERIOD. CURRENT PERIOD IS:       5

 USING AIR ENTRY PRESSURE FROM PREVIOUS STRESS PERIOD. CURRENT PERIOD IS:       5

 USING ROOT PRESSURE HEAD FROM PREVIOUS STRESS PERIOD. CURRENT PERIOD IS:       5

 USING ROOT ACTIVITY FROM PREVIOUS STRESS PERIOD. CURRENT PERIOD IS:       5

 PROCESSING AG STRESS PERIOD DATA

 READING AG STRESS PERIOD DATA

 READING IRRIGATION SEGMENT

 READING IRRIGATION WELL

 READING SUPPLEMENTAL WELL

 NO IRRPOND OR REUSING IRRPOND DATA FROM LAST STRESS PERIOD

 END PROCESSING AG STRESS PERIOD DATA OPTIONS
 
 SOLVING FOR HEAD 
                                                   Max.-Head-Change                         Max.-Flux-Residual
  Residual-Control   Outer-Iter.   Inner-Iter.     Column Row Layer    Maximum-Head-Change  Column Row Layer    Maximum-Flux-Residual          L2-NORM 
          0                 1           2             4   13     1      -0.1329788688E-01       4   13    1        -0.7786415509E+00      0.1319443334E+01
          0                 2           2             4    7     1      -0.1861922929E+01       5    6    1        -0.1000021716E+03      0.2449519757E+03
          0                 3           2             4    7     1       0.1257898457E+00       5    8    1         0.7023629138E+01      0.1708679057E+02
          0                 4           2             4    7     1      -0.5005387532E-02       5    8    1        -0.2872113180E+00      0.6997996723E+00
          0                 5           1             4    7     1       0.6171844459E-04       5    8    1         0.3635739633E-02      0.9270308535E-02

    ------------------------------------------------
       NWT REQUIRED            5 OUTER ITERATIONS 
       AND A TOTAL OF          9 INNER ITERATIONS.
    ------------------------------------------------

 NO OUTPUT CONTROL FOR STRESS PERIOD    5   TIME STEP    1
 
 SOLVING FOR HEAD 
                                                   Max.-Head-Change                         Max.-Flux-Residual
  Residual-Control   Outer-Iter.   Inner-Iter.     Column Row Layer    Maximum-Head-Change  Column Row Layer    Maximum-Flux-Residual          L2-NORM 
          0                 1           2             5    8     1       0.5324624759E-01       5    8    1         0.2937688512E+01      0.6403380600E+01
          0                 2           2             5    8     1      -0.5179356950E-02       5    8    1        -0.2937652962E+00      0.6398443024E+00
          0                 3           2             5    8     1       0.3526955093E-03       5    8    1         0.2056361343E-01      0.4474395811E-01
          0                 4           1             5    8     1      -0.1403408235E-04       5    8    1        -0.8410528112E-03      0.1827373421E-02

    ------------------------------------------------
       NWT REQUIRED            4 OUTER ITERATIONS 
       AND A TOTAL OF          7 INNER ITERATIONS.
    ------------------------------------------------

 OUTPUT CONTROL FOR STRESS PERIOD    5   TIME STEP    2
    PRINT BUDGET
    SAVE BUDGET
 UBDSV1 SAVING "         STORAGE" ON UNIT 102 AT TIME STEP 2, STRESS PERIOD5
 UBDSV2 SAVING "   CONSTANT HEAD" ON UNIT 102 AT TIME STEP 2, STRESS PERIOD 5
 UBDSV1 SAVING "FLOW RIGHT FACE " ON UNIT 102 AT TIME STEP 2, STRESS PERIOD5
 UBDSV1 SAVING "FLOW FRONT FACE " ON UNIT 102 AT TIME STEP 2, STRESS PERIOD5

  HEAD DEP BOUNDS   PERIOD    5   STEP     2
 BOUNDARY      1   LAYER   1   ROW    13   COL     1   RATE   -0.294173    
 BOUNDARY      2   LAYER   1   ROW    14   COL     9   RATE    0.285737    



 STREAM LISTING     PERIOD      5   STEP        2

 LAYER ROW COL. STREAM  RCH.  FLOW INTO     FLOW TO   FLOW OUT OF   OVRLND.     DIRECT     STREAM       STREAM     STREAM     STREAM   STREAMBED  STREAMBED
                SEG.NO.  NO.  STRM. RCH.    AQUIFER    STRM. RCH.    RUNOFF     PRECIP       ET          HEAD       DEPTH      WIDTH   CONDCTNC.   GRADIENT

   1    1    1     1     1    2.1000E+01  2.2591E-01   2.0774E+01  0.000E+00  0.000E+00  0.000E+00  1.09416E+03  1.115E+00  1.220E+01  5.490E-02  1.372E+00
   1    2    2     1     2    2.0774E+01  3.4916E-01   2.0425E+01  0.000E+00  0.000E+00  0.000E+00  1.08917E+03  1.110E+00  1.214E+01  8.495E-02  1.370E+00
   1    3    3     1     3    2.0425E+01  2.9709E-01   2.0128E+01  0.000E+00  0.000E+00  0.000E+00  1.08352E+03  1.105E+00  1.206E+01  7.238E-02  1.368E+00
   1    3    4     1     4    2.0128E+01  2.7299E-01   1.9855E+01  0.000E+00  0.000E+00  0.000E+00  1.07851E+03  1.100E+00  1.200E+01  6.659E-02  1.367E+00
   1    4    5     2     1    1.7855E+01  3.1056E-01   1.7544E+01  0.000E+00  0.000E+00  0.000E+00  1.07292E+03  9.816E-01  1.200E+01  7.800E-02  1.327E+00
   1    5    6     2     2    1.7544E+01  2.3834E-01   1.7306E+01  0.000E+00  0.000E+00  0.000E+00  1.06748E+03  9.724E-01  1.200E+01  6.000E-02  1.324E+00
   1    6    6     2     3    1.7306E+01  2.3786E-01   1.7068E+01  0.000E+00  0.000E+00  0.000E+00  1.06276E+03  9.644E-01  1.200E+01  6.000E-02  1.321E+00
   1    7    6     2     4    1.7068E+01  2.3738E-01   1.6831E+01  0.000E+00  0.000E+00  0.000E+00  1.05803E+03  9.564E-01  1.200E+01  6.000E-02  1.319E+00
   1    8    6     2     5    1.6831E+01  2.3690E-01   1.6594E+01  0.000E+00  0.000E+00  0.000E+00  1.05331E+03  9.483E-01  1.200E+01  6.000E-02  1.316E+00
   1    3    5     3     1    2.0000E+00  2.8252E-01   1.7175E+00  0.000E+00  0.000E+00  0.000E+00  1.07555E+03  1.909E+00  9.636E+00  7.227E-02  1.955E+00
   1    3    6     3     2    1.7175E+00  2.4905E-01   1.4684E+00  0.000E+00  0.000E+00  0.000E+00  1.07264E+03  1.727E+00  8.909E+00  6.682E-02  1.864E+00
   1    3    7     3     3    1.4684E+00  1.9718E-01   1.2712E+00  0.000E+00  0.000E+00  0.000E+00  1.06987E+03  1.555E+00  8.218E+00  5.547E-02  1.777E+00
   1    4    8     3     4    1.2712E+00  2.2567E-01   1.0456E+00  0.000E+00  0.000E+00  0.000E+00  1.06682E+03  1.364E+00  7.455E+00  6.709E-02  1.682E+00
   1    5    8     3     5    1.0456E+00  1.5790E-01   8.8768E-01  0.000E+00  0.000E+00  0.000E+00  1.06362E+03  1.164E+00  6.655E+00  4.991E-02  1.582E+00
   1    6    8     3     6    8.8768E-01  5.5980E-02   8.3170E-01  0.000E+00  0.000E+00  0.000E+00  1.06158E+03  1.036E+00  6.145E+00  1.844E-02  1.518E+00
   1    5   10     4     1    1.0000E+01  9.0919E-02   9.9091E+00  0.000E+00  0.000E+00  0.000E+00  1.07836E+03  6.368E-01  1.000E+01  2.500E-02  1.212E+00
   1    5    9     4     2    9.9091E+00  1.8158E-01   9.7275E+00  0.000E+00  0.000E+00  0.000E+00  1.07154E+03  6.315E-01  1.000E+01  5.000E-02  1.211E+00
   1    6    8     4     3    9.7275E+00  1.2689E-01   9.6006E+00  0.000E+00  0.000E+00  0.000E+00  1.06381E+03  6.256E-01  1.000E+01  3.500E-02  1.209E+00
   1    6    8     5     1    1.0432E+01  2.2686E-01   1.0205E+01  0.000E+00  0.000E+00  0.000E+00  1.05868E+03  6.790E-01  1.542E+01  6.166E-02  1.226E+00
   1    7    7     5     2    1.0205E+01  2.7894E-01   9.9265E+00  0.000E+00  0.000E+00  0.000E+00  1.05417E+03  6.732E-01  1.519E+01  7.594E-02  1.224E+00
   1    8    7     5     3    9.9265E+00  1.9221E-01   9.7343E+00  0.000E+00  0.000E+00  0.000E+00  1.04992E+03  6.676E-01  1.497E+01  5.241E-02  1.223E+00
   1    8    6     5     4    9.7343E+00  1.3577E-01   9.5985E+00  0.000E+00  0.000E+00  0.000E+00  1.04691E+03  6.637E-01  1.482E+01  3.706E-02  1.221E+00
   1    9    6     6     1    2.6192E+01  2.5512E-01   2.5937E+01  0.000E+00  0.000E+00  0.000E+00  1.04398E+03  1.252E+00  1.200E+01  6.000E-02  1.417E+00
   1   10    7     6     2    2.5937E+01  2.5468E-01   2.5682E+01  0.000E+00  0.000E+00  0.000E+00  1.03943E+03  1.245E+00  1.200E+01  6.000E-02  1.415E+00
   1   11    7     6     3    2.5682E+01  2.5424E-01   2.5428E+01  0.000E+00  0.000E+00  0.000E+00  1.03487E+03  1.237E+00  1.200E+01  6.000E-02  1.412E+00
   1   12    7     6     4    2.5428E+01  2.5379E-01   2.5174E+01  0.000E+00  0.000E+00  0.000E+00  1.03032E+03  1.230E+00  1.200E+01  6.000E-02  1.410E+00
   1   13    7     6     5    2.5174E+01  1.0576E-04   2.5174E+01  0.000E+00  0.000E+00  0.000E+00  1.02714E+03  1.226E+00  1.200E+01  2.400E-02  1.469E-03
   1   14    9     7     1    1.5000E+02  1.3355E+00   1.4866E+02  0.000E+00  0.000E+00  0.000E+00  1.03987E+03  2.288E+00  5.529E+01  5.593E-01  7.959E-01
   1   13    8     7     2    1.4866E+02  1.8267E+00   1.4684E+02  0.000E+00  0.000E+00  0.000E+00  1.03478E+03  2.279E+00  5.526E+01  6.148E-01  9.904E-01
   1   13    7     7     3    1.4684E+02  1.4292E+00   1.4541E+02  0.000E+00  0.000E+00  0.000E+00  1.02969E+03  2.271E+00  5.522E+01  5.585E-01  8.530E-01
   1   13    6     8     1    1.7058E+02  8.5754E-01   1.6973E+02  0.000E+00  0.000E+00  0.000E+00  1.02483E+03  2.953E+00  4.282E+01  4.364E-01  6.551E-01
   1   13    5     8     2    1.6973E+02  1.0301E-01   1.6962E+02  0.000E+00  0.000E+00  0.000E+00  1.01858E+03  2.950E+00  4.278E+01  4.359E-01  7.877E-02
   1   13    4     8     3    1.6962E+02 -3.0603E+00   1.7268E+02  0.000E+00  0.000E+00  0.000E+00  1.01233E+03  2.960E+00  4.292E+01  4.373E+00 -2.333E-01
   1   13    3     8     4    1.7268E+02 -4.1689E+00   1.7685E+02  0.000E+00  0.000E+00  0.000E+00  1.00611E+03  2.983E+00  4.325E+01  4.408E+00 -3.153E-01
   1   13    2     8     5    1.7685E+02 -3.1025E+00   1.7995E+02  0.000E+00  0.000E+00  0.000E+00  9.99881E+02  3.006E+00  4.359E+01  4.442E+00 -2.328E-01
   1   13    1     8     6    1.7995E+02 -2.2604E+00   1.8221E+02  0.000E+00  0.000E+00  0.000E+00  9.94898E+02  3.023E+00  4.383E+01  2.680E+00 -2.811E-01
   1    8    6     9     1    4.4264E-07  0.0000E+00   4.4264E-07  0.000E+00  0.000E+00  0.000E+00  1.07875E+03  7.379E-05  4.000E+00  0.000E+00  1.000E+00
   1    8    5     9     2    4.4264E-07  0.0000E+00   4.4264E-07  0.000E+00  0.000E+00  0.000E+00  1.07825E+03  7.379E-05  4.000E+00  0.000E+00  1.000E+00



 UBDSV3 SAVING "           GW ET" ON UNIT  61 AT TIME STEP 2, STRESS PERIOD 5
 UBDSV3 SAVING "    UZF RECHARGE" ON UNIT  61 AT TIME STEP 2, STRESS PERIOD 5
 UBDSV3 SAVING " SURFACE LEAKAGE" ON UNIT  61 AT TIME STEP 2, STRESS PERIOD 5
 UBDSV3 SAVING "       HORT+DUNN" ON UNIT  61 AT TIME STEP 2, STRESS PERIOD 5
 UBDSV3 SAVING "  STORAGE CHANGE" ON UNIT  61 AT TIME STEP 2, STRESS PERIOD 5


UNSATURATED ZONE PACKAGE VOLUMETRIC BUDGET FOR  TIME STEP     2 STRESS PERIOD    5
  ------------------------------------------------------------------------------



     CUMULATIVE VOLUMES      L**3       RATES FOR THIS TIME STEP      L**3/T
     ------------------                 ------------------------

           IN:                                      IN:
           ---                                      ---
        INFILTRATION =    60963341.6487          INFILTRATION =           0.8475

          OUT:                                     OUT:
          ----                                     ----
              UZF ET =     7403799.9883                UZF ET =           4.5675
        UZF RECHARGE =       73224.0000          UZF RECHARGE =       0.0000E+00

            IN - OUT =    53486317.6603              IN - OUT =          -3.7200

          STORAGE:                                 STORAGE:
          --------                                 --------
      STORAGE CHANGE =    53507295.3162        STORAGE CHANGE =          -3.4807

 PERCENT DISCREPANCY IS DIFFERENCE BETWEEN IN-OUT MINUS CHANGE IN STORAGE
 DIVIDED BY THE AVERAGE OF IN AND OUT TIMES 100

 PERCENT DISCREPANCY =          -0.01     PERCENT DISCREPANCY =          -5.24






 

            AG WELLS      PERIOD    5   STEP   2
 AG WELL      1   LAYER   1   ROW     6   COL     4   RATE   -1.844331E-08
 AG WELL      2   LAYER   1   ROW     6   COL     5   RATE   -1.844331E-08
 AG WELL      3   LAYER   1   ROW     7   COL     4   RATE   -1.844331E-08
 AG WELL      4   LAYER   1   ROW     7   COL     5   RATE   -1.844331E-08
 AG WELL      5   LAYER   1   ROW     8   COL     4   RATE   -1.844331E-08
 AG WELL      6   LAYER   1   ROW     8   COL     5   RATE   -1.844331E-08
 
 

   DIVERSION SEGMENTS     PERIOD    5   STEP   2
 SEGMENT      9   RATE    4.426394E-07
 
 

        SW IRRIGATION     PERIOD    5   STEP   2
 SEGMENT      9   ROW     6   COL     4   RATE    5.533103E-08
 SEGMENT      9   ROW     6   COL     5   RATE    5.533103E-08
 SEGMENT      9   ROW     7   COL     4   RATE    5.533103E-08
 SEGMENT      9   ROW     7   COL     5   RATE    5.533103E-08
 SEGMENT      9   ROW     8   COL     4   RATE    5.533103E-08
 SEGMENT      9   ROW     8   COL     5   RATE    5.533103E-08
 
 

        GW IRRIGATION     PERIOD    5   STEP   2
 AG WELL      1   ROW     6   COL     4   RATE    1.844331E-08
 AG WELL      2   ROW     6   COL     5   RATE    1.844331E-08
 AG WELL      3   ROW     7   COL     4   RATE    1.844331E-08
 AG WELL      4   ROW     7   COL     5   RATE    1.844331E-08
 AG WELL      5   ROW     8   COL     4   RATE    1.844331E-08
 AG WELL      6   ROW     8   COL     5   RATE    1.844331E-08
 
1
  VOLUMETRIC BUDGET FOR AGRICULTURAL FIELDS AT  END OF TIME STEP    2, STRESS PERIOD   5
  ------------------------------------------------------------------------------

     CUMULATIVE VOLUMES      L**3       RATES FOR THIS TIME STEP      L**3/T
     ------------------                 ------------------------

           IN:                                      IN:
           ---                                      ---
               AG WELLS  =    52600000.0000                 AG WELLS  =       1.1066E-07
      DIVERSION SEGMENTS =     1454718.5000        DIVERSION SEGMENTS =       4.4264E-07
       IRRIGATION PONDS  =           0.0000         IRRIGATION PONDS  =           0.0000
           GW IRRIGATION =           0.0000             GW IRRIGATION =           0.0000
           SW IRRIGATION =           0.0000             SW IRRIGATION =           0.0000
        SYSTEM LOSSES GW =           0.0000          SYSTEM LOSSES GW =           0.0000
        SYSTEM LOSSES SW =           0.0000          SYSTEM LOSSES SW =           0.0000

                TOTAL IN =    54054720.0000                  TOTAL IN =       5.5330E-07

          OUT:                                     OUT:
          ----                                     ----
               AG WELLS  =           0.0000                 AG WELLS  =           0.0000
      DIVERSION SEGMENTS =           0.0000        DIVERSION SEGMENTS =           0.0000
       IRRIGATION PONDS  =           0.0000         IRRIGATION PONDS  =           0.0000
           GW IRRIGATION =    52600000.0000             GW IRRIGATION =       1.1066E-07
           SW IRRIGATION =     1454747.5000             SW IRRIGATION =       4.4265E-07
        SYSTEM LOSSES GW =           0.0000          SYSTEM LOSSES GW =           0.0000
        SYSTEM LOSSES SW =           0.0000          SYSTEM LOSSES SW =           0.0000

               TOTAL OUT =    54054748.0000                 TOTAL OUT =       5.5331E-07

                IN - OUT =         -28.0000                  IN - OUT =      -8.8107E-12

     PERCENT DISCREPANCY =          -0.00         PERCENT DISCREPANCY =          -0.00



1
  VOLUMETRIC BUDGET FOR ENTIRE MODEL AT END OF TIME STEP    2, STRESS PERIOD   5
  ------------------------------------------------------------------------------

     CUMULATIVE VOLUMES      L**3       RATES FOR THIS TIME STEP      L**3/T
     ------------------                 ------------------------

           IN:                                      IN:
           ---                                      ---
             STORAGE     =    58471888.0000               STORAGE     =          13.2543
       CONSTANT HEAD     =           0.0000         CONSTANT HEAD     =           0.0000
     HEAD DEP BOUNDS     =     2328828.0000       HEAD DEP BOUNDS     =           0.2857
      STREAM LEAKAGE     =    97863544.0000        STREAM LEAKAGE     =          11.3775
        UZF RECHARGE     =       73223.9531          UZF RECHARGE     =           0.0000
               GW ET     =           0.0000                 GW ET     =           0.0000
     SURFACE LEAKAGE     =           0.0000       SURFACE LEAKAGE     =           0.0000
           AG WELLS      =           0.0000             AG WELLS      =           0.0000

                TOTAL IN =   158737472.0000                  TOTAL IN =          24.9176

          OUT:                                     OUT:
          ----                                     ----
             STORAGE     =    19164184.0000               STORAGE     =          11.9217
       CONSTANT HEAD     =           0.0000         CONSTANT HEAD     =           0.0000
     HEAD DEP BOUNDS     =     2368202.0000       HEAD DEP BOUNDS     =           0.2942
      STREAM LEAKAGE     =    84583848.0000        STREAM LEAKAGE     =          12.5922
        UZF RECHARGE     =           0.0000          UZF RECHARGE     =           0.0000
               GW ET     =       25119.2070                 GW ET     =           0.1095
     SURFACE LEAKAGE     =           0.0000       SURFACE LEAKAGE     =           0.0000
           AG WELLS      =    52600000.0000             AG WELLS      =       1.1066E-07

               TOTAL OUT =   158741344.0000                 TOTAL OUT =          24.9176

                IN - OUT =       -3872.0000                  IN - OUT =           0.0000

     PERCENT DISCREPANCY =          -0.00         PERCENT DISCREPANCY =           0.00






         TIME SUMMARY AT END OF TIME STEP    2 IN STRESS PERIOD    5
                    SECONDS     MINUTES      HOURS       DAYS        YEARS
                    -----------------------------------------------------------
   TIME STEP LENGTH  87667.      1461.1      24.352      1.0147     2.77799E-03
 STRESS PERIOD TIME 1.75333E+05  2922.2      48.704      2.0293     5.55598E-03
         TOTAL TIME 8.15173E+06 1.35862E+05  2264.4      94.349     0.25831    
1
 
 SOLVING FOR HEAD 
                                                   Max.-Head-Change                         Max.-Flux-Residual
  Residual-Control   Outer-Iter.   Inner-Iter.     Column Row Layer    Maximum-Head-Change  Column Row Layer    Maximum-Flux-Residual          L2-NORM 
          0                 1           2             5    8     1       0.5019886346E-01       5    8    1         0.2767043546E+01      0.6080143191E+01
          0                 2           2             5    8     1      -0.4882935766E-02       5    8    1        -0.2767012342E+00      0.6075714587E+00
          0                 3           2             5    8     1       0.3325102649E-03       5    8    1         0.1936912447E-01      0.4249082218E-01
          0                 4           1             5    8     1      -0.1323089280E-04       5    8    1        -0.7921981610E-03      0.1735732153E-02

    ------------------------------------------------
       NWT REQUIRED            4 OUTER ITERATIONS 
       AND A TOTAL OF          7 INNER ITERATIONS.
    ------------------------------------------------

 OUTPUT CONTROL FOR STRESS PERIOD    5   TIME STEP    3
    PRINT BUDGET
    SAVE BUDGET
 UBDSV1 SAVING "         STORAGE" ON UNIT 102 AT TIME STEP 3, STRESS PERIOD5
 UBDSV2 SAVING "   CONSTANT HEAD" ON UNIT 102 AT TIME STEP 3, STRESS PERIOD 5
 UBDSV1 SAVING "FLOW RIGHT FACE " ON UNIT 102 AT TIME STEP 3, STRESS PERIOD5
 UBDSV1 SAVING "FLOW FRONT FACE " ON UNIT 102 AT TIME STEP 3, STRESS PERIOD5

  HEAD DEP BOUNDS   PERIOD    5   STEP     3
 BOUNDARY      1   LAYER   1   ROW    13   COL     1   RATE   -0.293987    
 BOUNDARY      2   LAYER   1   ROW    14   COL     9   RATE    0.285738    



 STREAM LISTING     PERIOD      5   STEP        3

 LAYER ROW COL. STREAM  RCH.  FLOW INTO     FLOW TO   FLOW OUT OF   OVRLND.     DIRECT     STREAM       STREAM     STREAM     STREAM   STREAMBED  STREAMBED
                SEG.NO.  NO.  STRM. RCH.    AQUIFER    STRM. RCH.    RUNOFF     PRECIP       ET          HEAD       DEPTH      WIDTH   CONDCTNC.   GRADIENT

   1    1    1     1     1    2.1000E+01  2.2591E-01   2.0774E+01  0.000E+00  0.000E+00  0.000E+00  1.09416E+03  1.115E+00  1.220E+01  5.490E-02  1.372E+00
   1    2    2     1     2    2.0774E+01  3.4916E-01   2.0425E+01  0.000E+00  0.000E+00  0.000E+00  1.08917E+03  1.110E+00  1.214E+01  8.495E-02  1.370E+00
   1    3    3     1     3    2.0425E+01  2.9709E-01   2.0128E+01  0.000E+00  0.000E+00  0.000E+00  1.08352E+03  1.105E+00  1.206E+01  7.238E-02  1.368E+00
   1    3    4     1     4    2.0128E+01  2.7299E-01   1.9855E+01  0.000E+00  0.000E+00  0.000E+00  1.07851E+03  1.100E+00  1.200E+01  6.659E-02  1.367E+00
   1    4    5     2     1    1.7855E+01  3.1056E-01   1.7544E+01  0.000E+00  0.000E+00  0.000E+00  1.07292E+03  9.816E-01  1.200E+01  7.800E-02  1.327E+00
   1    5    6     2     2    1.7544E+01  2.3834E-01   1.7306E+01  0.000E+00  0.000E+00  0.000E+00  1.06748E+03  9.724E-01  1.200E+01  6.000E-02  1.324E+00
   1    6    6     2     3    1.7306E+01  2.3786E-01   1.7068E+01  0.000E+00  0.000E+00  0.000E+00  1.06276E+03  9.644E-01  1.200E+01  6.000E-02  1.321E+00
   1    7    6     2     4    1.7068E+01  2.3738E-01   1.6831E+01  0.000E+00  0.000E+00  0.000E+00  1.05803E+03  9.564E-01  1.200E+01  6.000E-02  1.319E+00
   1    8    6     2     5    1.6831E+01  2.3690E-01   1.6594E+01  0.000E+00  0.000E+00  0.000E+00  1.05331E+03  9.483E-01  1.200E+01  6.000E-02  1.316E+00
   1    3    5     3     1    2.0000E+00  2.8252E-01   1.7175E+00  0.000E+00  0.000E+00  0.000E+00  1.07555E+03  1.909E+00  9.636E+00  7.227E-02  1.955E+00
   1    3    6     3     2    1.7175E+00  2.4905E-01   1.4684E+00  0.000E+00  0.000E+00  0.000E+00  1.07264E+03  1.727E+00  8.909E+00  6.682E-02  1.864E+00
   1    3    7     3     3    1.4684E+00  1.9718E-01   1.2712E+00  0.000E+00  0.000E+00  0.000E+00  1.06987E+03  1.555E+00  8.218E+00  5.547E-02  1.777E+00
   1    4    8     3     4    1.2712E+00  2.2567E-01   1.0456E+00  0.000E+00  0.000E+00  0.000E+00  1.06682E+03  1.364E+00  7.455E+00  6.709E-02  1.682E+00
   1    5    8     3     5    1.0456E+00  1.5790E-01   8.8768E-01  0.000E+00  0.000E+00  0.000E+00  1.06362E+03  1.164E+00  6.655E+00  4.991E-02  1.582E+00
   1    6    8     3     6    8.8768E-01  5.5980E-02   8.3170E-01  0.000E+00  0.000E+00  0.000E+00  1.06158E+03  1.036E+00  6.145E+00  1.844E-02  1.518E+00
   1    5   10     4     1    1.0000E+01  9.0919E-02   9.9091E+00  0.000E+00  0.000E+00  0.000E+00  1.07836E+03  6.368E-01  1.000E+01  2.500E-02  1.212E+00
   1    5    9     4     2    9.9091E+00  1.8158E-01   9.7275E+00  0.000E+00  0.000E+00  0.000E+00  1.07154E+03  6.315E-01  1.000E+01  5.000E-02  1.211E+00
   1    6    8     4     3    9.7275E+00  1.2689E-01   9.6006E+00  0.000E+00  0.000E+00  0.000E+00  1.06381E+03  6.256E-01  1.000E+01  3.500E-02  1.209E+00
   1    6    8     5     1    1.0432E+01  2.2686E-01   1.0205E+01  0.000E+00  0.000E+00  0.000E+00  1.05868E+03  6.790E-01  1.542E+01  6.166E-02  1.226E+00
   1    7    7     5     2    1.0205E+01  2.7894E-01   9.9265E+00  0.000E+00  0.000E+00  0.000E+00  1.05417E+03  6.732E-01  1.519E+01  7.594E-02  1.224E+00
   1    8    7     5     3    9.9265E+00  1.9221E-01   9.7343E+00  0.000E+00  0.000E+00  0.000E+00  1.04992E+03  6.676E-01  1.497E+01  5.241E-02  1.223E+00
   1    8    6     5     4    9.7343E+00  1.3577E-01   9.5985E+00  0.000E+00  0.000E+00  0.000E+00  1.04691E+03  6.637E-01  1.482E+01  3.706E-02  1.221E+00
   1    9    6     6     1    2.6192E+01  2.5512E-01   2.5937E+01  0.000E+00  0.000E+00  0.000E+00  1.04398E+03  1.252E+00  1.200E+01  6.000E-02  1.417E+00
   1   10    7     6     2    2.5937E+01  2.5468E-01   2.5682E+01  0.000E+00  0.000E+00  0.000E+00  1.03943E+03  1.245E+00  1.200E+01  6.000E-02  1.415E+00
   1   11    7     6     3    2.5682E+01  2.5424E-01   2.5428E+01  0.000E+00  0.000E+00  0.000E+00  1.03487E+03  1.237E+00  1.200E+01  6.000E-02  1.412E+00
   1   12    7     6     4    2.5428E+01  2.5379E-01   2.5174E+01  0.000E+00  0.000E+00  0.000E+00  1.03032E+03  1.230E+00  1.200E+01  6.000E-02  1.410E+00
   1   13    7     6     5    2.5174E+01  9.5142E-05   2.5174E+01  0.000E+00  0.000E+00  0.000E+00  1.02714E+03  1.226E+00  1.200E+01  2.400E-02  1.321E-03
   1   14    9     7     1    1.5000E+02  1.3355E+00   1.4866E+02  0.000E+00  0.000E+00  0.000E+00  1.03987E+03  2.288E+00  5.529E+01  5.593E-01  7.959E-01
   1   13    8     7     2    1.4866E+02  1.8266E+00   1.4684E+02  0.000E+00  0.000E+00  0.000E+00  1.03478E+03  2.279E+00  5.526E+01  6.148E-01  9.904E-01
   1   13    7     7     3    1.4684E+02  1.4289E+00   1.4541E+02  0.000E+00  0.000E+00  0.000E+00  1.02969E+03  2.271E+00  5.522E+01  5.585E-01  8.529E-01
   1   13    6     8     1    1.7058E+02  8.5806E-01   1.6973E+02  0.000E+00  0.000E+00  0.000E+00  1.02483E+03  2.953E+00  4.282E+01  4.364E-01  6.555E-01
   1   13    5     8     2    1.6973E+02  1.0335E-01   1.6962E+02  0.000E+00  0.000E+00  0.000E+00  1.01858E+03  2.950E+00  4.278E+01  4.359E-01  7.903E-02
   1   13    4     8     3    1.6962E+02 -3.0213E+00   1.7264E+02  0.000E+00  0.000E+00  0.000E+00  1.01233E+03  2.960E+00  4.291E+01  4.373E+00 -2.303E-01
   1   13    3     8     4    1.7264E+02 -4.1316E+00   1.7677E+02  0.000E+00  0.000E+00  0.000E+00  1.00611E+03  2.983E+00  4.325E+01  4.407E+00 -3.125E-01
   1   13    2     8     5    1.7677E+02 -3.0651E+00   1.7984E+02  0.000E+00  0.000E+00  0.000E+00  9.99880E+02  3.005E+00  4.358E+01  4.441E+00 -2.301E-01
   1   13    1     8     6    1.7984E+02 -2.2487E+00   1.8209E+02  0.000E+00  0.000E+00  0.000E+00  9.94897E+02  3.022E+00  4.382E+01  2.679E+00 -2.798E-01
   1    8    6     9     1    4.4264E-07  0.0000E+00   4.4264E-07  0.000E+00  0.000E+00  0.000E+00  1.07875E+03  7.379E-05  4.000E+00  0.000E+00  1.000E+00
   1    8    5     9     2    4.4264E-07  0.0000E+00   4.4264E-07  0.000E+00  0.000E+00  0.000E+00  1.07825E+03  7.379E-05  4.000E+00  0.000E+00  1.000E+00



 UBDSV3 SAVING "           GW ET" ON UNIT  61 AT TIME STEP 3, STRESS PERIOD 5
 UBDSV3 SAVING "    UZF RECHARGE" ON UNIT  61 AT TIME STEP 3, STRESS PERIOD 5
 UBDSV3 SAVING " SURFACE LEAKAGE" ON UNIT  61 AT TIME STEP 3, STRESS PERIOD 5
 UBDSV3 SAVING "       HORT+DUNN" ON UNIT  61 AT TIME STEP 3, STRESS PERIOD 5
 UBDSV3 SAVING "  STORAGE CHANGE" ON UNIT  61 AT TIME STEP 3, STRESS PERIOD 5


UNSATURATED ZONE PACKAGE VOLUMETRIC BUDGET FOR  TIME STEP     3 STRESS PERIOD    5
  ------------------------------------------------------------------------------



     CUMULATIVE VOLUMES      L**3       RATES FOR THIS TIME STEP      L**3/T
     ------------------                 ------------------------

           IN:                                      IN:
           ---                                      ---
        INFILTRATION =    61037639.1833          INFILTRATION =           0.8475

          OUT:                                     OUT:
          ----                                     ----
              UZF ET =     7804217.4686                UZF ET =           4.5675
        UZF RECHARGE =       73224.0000          UZF RECHARGE =       0.0000E+00

            IN - OUT =    53160197.7147              IN - OUT =          -3.7200

          STORAGE:                                 STORAGE:
          --------                                 --------
      STORAGE CHANGE =    53181175.3603        STORAGE CHANGE =          -3.7200

 PERCENT DISCREPANCY IS DIFFERENCE BETWEEN IN-OUT MINUS CHANGE IN STORAGE
 DIVIDED BY THE AVERAGE OF IN AND OUT TIMES 100

 PERCENT DISCREPANCY =          -0.01     PERCENT DISCREPANCY =           0.00






 

            AG WELLS      PERIOD    5   STEP   3
 AG WELL      1   LAYER   1   ROW     6   COL     4   RATE   -1.844331E-08
 AG WELL      2   LAYER   1   ROW     6   COL     5   RATE   -1.844331E-08
 AG WELL      3   LAYER   1   ROW     7   COL     4   RATE   -1.844331E-08
 AG WELL      4   LAYER   1   ROW     7   COL     5   RATE   -1.844331E-08
 AG WELL      5   LAYER   1   ROW     8   COL     4   RATE   -1.844331E-08
 AG WELL      6   LAYER   1   ROW     8   COL     5   RATE   -1.844331E-08
 
 

   DIVERSION SEGMENTS     PERIOD    5   STEP   3
 SEGMENT      9   RATE    4.426394E-07
 
 

        SW IRRIGATION     PERIOD    5   STEP   3
 SEGMENT      9   ROW     6   COL     4   RATE    5.533103E-08
 SEGMENT      9   ROW     6   COL     5   RATE    5.533103E-08
 SEGMENT      9   ROW     7   COL     4   RATE    5.533103E-08
 SEGMENT      9   ROW     7   COL     5   RATE    5.533103E-08
 SEGMENT      9   ROW     8   COL     4   RATE    5.533103E-08
 SEGMENT      9   ROW     8   COL     5   RATE    5.533103E-08
 
 

        GW IRRIGATION     PERIOD    5   STEP   3
 AG WELL      1   ROW     6   COL     4   RATE    1.844331E-08
 AG WELL      2   ROW     6   COL     5   RATE    1.844331E-08
 AG WELL      3   ROW     7   COL     4   RATE    1.844331E-08
 AG WELL      4   ROW     7   COL     5   RATE    1.844331E-08
 AG WELL      5   ROW     8   COL     4   RATE    1.844331E-08
 AG WELL      6   ROW     8   COL     5   RATE    1.844331E-08
 
1
  VOLUMETRIC BUDGET FOR AGRICULTURAL FIELDS AT  END OF TIME STEP    3, STRESS PERIOD   5
  ------------------------------------------------------------------------------

     CUMULATIVE VOLUMES      L**3       RATES FOR THIS TIME STEP      L**3/T
     ------------------                 ------------------------

           IN:                                      IN:
           ---                                      ---
               AG WELLS  =    52600000.0000                 AG WELLS  =       1.1066E-07
      DIVERSION SEGMENTS =     1454718.5000        DIVERSION SEGMENTS =       4.4264E-07
       IRRIGATION PONDS  =           0.0000         IRRIGATION PONDS  =           0.0000
           GW IRRIGATION =           0.0000             GW IRRIGATION =           0.0000
           SW IRRIGATION =           0.0000             SW IRRIGATION =           0.0000
        SYSTEM LOSSES GW =           0.0000          SYSTEM LOSSES GW =           0.0000
        SYSTEM LOSSES SW =           0.0000          SYSTEM LOSSES SW =           0.0000

                TOTAL IN =    54054720.0000                  TOTAL IN =       5.5330E-07

          OUT:                                     OUT:
          ----                                     ----
               AG WELLS  =           0.0000                 AG WELLS  =           0.0000
      DIVERSION SEGMENTS =           0.0000        DIVERSION SEGMENTS =           0.0000
       IRRIGATION PONDS  =           0.0000         IRRIGATION PONDS  =           0.0000
           GW IRRIGATION =    52600000.0000             GW IRRIGATION =       1.1066E-07
           SW IRRIGATION =     1454747.5000             SW IRRIGATION =       4.4265E-07
        SYSTEM LOSSES GW =           0.0000          SYSTEM LOSSES GW =           0.0000
        SYSTEM LOSSES SW =           0.0000          SYSTEM LOSSES SW =           0.0000

               TOTAL OUT =    54054748.0000                 TOTAL OUT =       5.5331E-07

                IN - OUT =         -28.0000                  IN - OUT =      -8.8107E-12

     PERCENT DISCREPANCY =          -0.00         PERCENT DISCREPANCY =          -0.00



1
  VOLUMETRIC BUDGET FOR ENTIRE MODEL AT END OF TIME STEP    3, STRESS PERIOD   5
  ------------------------------------------------------------------------------

     CUMULATIVE VOLUMES      L**3       RATES FOR THIS TIME STEP      L**3/T
     ------------------                 ------------------------

           IN:                                      IN:
           ---                                      ---
             STORAGE     =    59582388.0000               STORAGE     =          12.6673
       CONSTANT HEAD     =           0.0000         CONSTANT HEAD     =           0.0000
     HEAD DEP BOUNDS     =     2353877.7500       HEAD DEP BOUNDS     =           0.2857
      STREAM LEAKAGE     =    98861016.0000        STREAM LEAKAGE     =          11.3780
        UZF RECHARGE     =       73223.9531          UZF RECHARGE     =           0.0000
               GW ET     =           0.0000                 GW ET     =           0.0000
     SURFACE LEAKAGE     =           0.0000       SURFACE LEAKAGE     =           0.0000
           AG WELLS      =           0.0000             AG WELLS      =           0.0000

                TOTAL IN =   160870496.0000                  TOTAL IN =          24.3311

          OUT:                                     OUT:
          ----                                     ----
             STORAGE     =    20170850.0000               STORAGE     =          11.4829
       CONSTANT HEAD     =           0.0000         CONSTANT HEAD     =           0.0000
     HEAD DEP BOUNDS     =     2393974.7500       HEAD DEP BOUNDS     =           0.2940
      STREAM LEAKAGE     =    85676760.0000        STREAM LEAKAGE     =          12.4667
        UZF RECHARGE     =           0.0000          UZF RECHARGE     =           0.0000
               GW ET     =       32787.7617                 GW ET     =       8.7474E-02
     SURFACE LEAKAGE     =           0.0000       SURFACE LEAKAGE     =           0.0000
           AG WELLS      =    52600000.0000             AG WELLS      =       1.1066E-07

               TOTAL OUT =   160874368.0000                 TOTAL OUT =          24.3311

                IN - OUT =       -3872.0000                  IN - OUT =      -1.9073E-06

     PERCENT DISCREPANCY =          -0.00         PERCENT DISCREPANCY =          -0.00






         TIME SUMMARY AT END OF TIME STEP    3 IN STRESS PERIOD    5
                    SECONDS     MINUTES      HOURS       DAYS        YEARS
                    -----------------------------------------------------------
   TIME STEP LENGTH  87667.      1461.1      24.352      1.0147     2.77799E-03
 STRESS PERIOD TIME 2.63000E+05  4383.3      73.056      3.0440     8.33397E-03
         TOTAL TIME 8.23939E+06 1.37323E+05  2288.7      95.363     0.26109    
1
 
 SOLVING FOR HEAD 
                                                   Max.-Head-Change                         Max.-Flux-Residual
  Residual-Control   Outer-Iter.   Inner-Iter.     Column Row Layer    Maximum-Head-Change  Column Row Layer    Maximum-Flux-Residual          L2-NORM 
          0                 1           2             5    8     1       0.4736892245E-01       5    8    1         0.2608683823E+01      0.5780392959E+01
          0                 2           2             5    8     1      -0.4607665445E-02       5    8    1        -0.2608656331E+00      0.5776329378E+00
          0                 3           2             5    8     1       0.3137653247E-03       5    8    1         0.1826062839E-01      0.4039981773E-01
          0                 4           1             5    8     1      -0.1248501423E-04       5    8    1        -0.7468606234E-03      0.1650202445E-02

    ------------------------------------------------
       NWT REQUIRED            4 OUTER ITERATIONS 
       AND A TOTAL OF          7 INNER ITERATIONS.
    ------------------------------------------------

 OUTPUT CONTROL FOR STRESS PERIOD    5   TIME STEP    4
    PRINT BUDGET
    SAVE BUDGET
 UBDSV1 SAVING "         STORAGE" ON UNIT 102 AT TIME STEP 4, STRESS PERIOD5
 UBDSV2 SAVING "   CONSTANT HEAD" ON UNIT 102 AT TIME STEP 4, STRESS PERIOD 5
 UBDSV1 SAVING "FLOW RIGHT FACE " ON UNIT 102 AT TIME STEP 4, STRESS PERIOD5
 UBDSV1 SAVING "FLOW FRONT FACE " ON UNIT 102 AT TIME STEP 4, STRESS PERIOD5

  HEAD DEP BOUNDS   PERIOD    5   STEP     4
 BOUNDARY      1   LAYER   1   ROW    13   COL     1   RATE   -0.293807    
 BOUNDARY      2   LAYER   1   ROW    14   COL     9   RATE    0.285739    



 STREAM LISTING     PERIOD      5   STEP        4

 LAYER ROW COL. STREAM  RCH.  FLOW INTO     FLOW TO   FLOW OUT OF   OVRLND.     DIRECT     STREAM       STREAM     STREAM     STREAM   STREAMBED  STREAMBED
                SEG.NO.  NO.  STRM. RCH.    AQUIFER    STRM. RCH.    RUNOFF     PRECIP       ET          HEAD       DEPTH      WIDTH   CONDCTNC.   GRADIENT

   1    1    1     1     1    2.1000E+01  2.2591E-01   2.0774E+01  0.000E+00  0.000E+00  0.000E+00  1.09416E+03  1.115E+00  1.220E+01  5.490E-02  1.372E+00
   1    2    2     1     2    2.0774E+01  3.4916E-01   2.0425E+01  0.000E+00  0.000E+00  0.000E+00  1.08917E+03  1.110E+00  1.214E+01  8.495E-02  1.370E+00
   1    3    3     1     3    2.0425E+01  2.9709E-01   2.0128E+01  0.000E+00  0.000E+00  0.000E+00  1.08352E+03  1.105E+00  1.206E+01  7.238E-02  1.368E+00
   1    3    4     1     4    2.0128E+01  2.7299E-01   1.9855E+01  0.000E+00  0.000E+00  0.000E+00  1.07851E+03  1.100E+00  1.200E+01  6.659E-02  1.367E+00
   1    4    5     2     1    1.7855E+01  3.1056E-01   1.7544E+01  0.000E+00  0.000E+00  0.000E+00  1.07292E+03  9.816E-01  1.200E+01  7.800E-02  1.327E+00
   1    5    6     2     2    1.7544E+01  2.3834E-01   1.7306E+01  0.000E+00  0.000E+00  0.000E+00  1.06748E+03  9.724E-01  1.200E+01  6.000E-02  1.324E+00
   1    6    6     2     3    1.7306E+01  2.3786E-01   1.7068E+01  0.000E+00  0.000E+00  0.000E+00  1.06276E+03  9.644E-01  1.200E+01  6.000E-02  1.321E+00
   1    7    6     2     4    1.7068E+01  2.3738E-01   1.6831E+01  0.000E+00  0.000E+00  0.000E+00  1.05803E+03  9.564E-01  1.200E+01  6.000E-02  1.319E+00
   1    8    6     2     5    1.6831E+01  2.3690E-01   1.6594E+01  0.000E+00  0.000E+00  0.000E+00  1.05331E+03  9.483E-01  1.200E+01  6.000E-02  1.316E+00
   1    3    5     3     1    2.0000E+00  2.8252E-01   1.7175E+00  0.000E+00  0.000E+00  0.000E+00  1.07555E+03  1.909E+00  9.636E+00  7.227E-02  1.955E+00
   1    3    6     3     2    1.7175E+00  2.4905E-01   1.4684E+00  0.000E+00  0.000E+00  0.000E+00  1.07264E+03  1.727E+00  8.909E+00  6.682E-02  1.864E+00
   1    3    7     3     3    1.4684E+00  1.9718E-01   1.2712E+00  0.000E+00  0.000E+00  0.000E+00  1.06987E+03  1.555E+00  8.218E+00  5.547E-02  1.777E+00
   1    4    8     3     4    1.2712E+00  2.2567E-01   1.0456E+00  0.000E+00  0.000E+00  0.000E+00  1.06682E+03  1.364E+00  7.455E+00  6.709E-02  1.682E+00
   1    5    8     3     5    1.0456E+00  1.5790E-01   8.8768E-01  0.000E+00  0.000E+00  0.000E+00  1.06362E+03  1.164E+00  6.655E+00  4.991E-02  1.582E+00
   1    6    8     3     6    8.8768E-01  5.5980E-02   8.3170E-01  0.000E+00  0.000E+00  0.000E+00  1.06158E+03  1.036E+00  6.145E+00  1.844E-02  1.518E+00
   1    5   10     4     1    1.0000E+01  9.0919E-02   9.9091E+00  0.000E+00  0.000E+00  0.000E+00  1.07836E+03  6.368E-01  1.000E+01  2.500E-02  1.212E+00
   1    5    9     4     2    9.9091E+00  1.8158E-01   9.7275E+00  0.000E+00  0.000E+00  0.000E+00  1.07154E+03  6.315E-01  1.000E+01  5.000E-02  1.211E+00
   1    6    8     4     3    9.7275E+00  1.2689E-01   9.6006E+00  0.000E+00  0.000E+00  0.000E+00  1.06381E+03  6.256E-01  1.000E+01  3.500E-02  1.209E+00
   1    6    8     5     1    1.0432E+01  2.2686E-01   1.0205E+01  0.000E+00  0.000E+00  0.000E+00  1.05868E+03  6.790E-01  1.542E+01  6.166E-02  1.226E+00
   1    7    7     5     2    1.0205E+01  2.7894E-01   9.9265E+00  0.000E+00  0.000E+00  0.000E+00  1.05417E+03  6.732E-01  1.519E+01  7.594E-02  1.224E+00
   1    8    7     5     3    9.9265E+00  1.9221E-01   9.7343E+00  0.000E+00  0.000E+00  0.000E+00  1.04992E+03  6.676E-01  1.497E+01  5.241E-02  1.223E+00
   1    8    6     5     4    9.7343E+00  1.3577E-01   9.5985E+00  0.000E+00  0.000E+00  0.000E+00  1.04691E+03  6.637E-01  1.482E+01  3.706E-02  1.221E+00
   1    9    6     6     1    2.6192E+01  2.5512E-01   2.5937E+01  0.000E+00  0.000E+00  0.000E+00  1.04398E+03  1.252E+00  1.200E+01  6.000E-02  1.417E+00
   1   10    7     6     2    2.5937E+01  2.5468E-01   2.5682E+01  0.000E+00  0.000E+00  0.000E+00  1.03943E+03  1.245E+00  1.200E+01  6.000E-02  1.415E+00
   1   11    7     6     3    2.5682E+01  2.5424E-01   2.5428E+01  0.000E+00  0.000E+00  0.000E+00  1.03487E+03  1.237E+00  1.200E+01  6.000E-02  1.412E+00
   1   12    7     6     4    2.5428E+01  2.5379E-01   2.5174E+01  0.000E+00  0.000E+00  0.000E+00  1.03032E+03  1.230E+00  1.200E+01  6.000E-02  1.410E+00
   1   13    7     6     5    2.5174E+01  8.5121E-05   2.5174E+01  0.000E+00  0.000E+00  0.000E+00  1.02714E+03  1.226E+00  1.200E+01  2.400E-02  1.182E-03
   1   14    9     7     1    1.5000E+02  1.3355E+00   1.4866E+02  0.000E+00  0.000E+00  0.000E+00  1.03987E+03  2.288E+00  5.529E+01  5.593E-01  7.959E-01
   1   13    8     7     2    1.4866E+02  1.8265E+00   1.4684E+02  0.000E+00  0.000E+00  0.000E+00  1.03478E+03  2.279E+00  5.526E+01  6.148E-01  9.903E-01
   1   13    7     7     3    1.4684E+02  1.4287E+00   1.4541E+02  0.000E+00  0.000E+00  0.000E+00  1.02969E+03  2.271E+00  5.522E+01  5.585E-01  8.528E-01
   1   13    6     8     1    1.7058E+02  8.5855E-01   1.6973E+02  0.000E+00  0.000E+00  0.000E+00  1.02483E+03  2.953E+00  4.282E+01  4.364E-01  6.558E-01
   1   13    5     8     2    1.6973E+02  1.0372E-01   1.6962E+02  0.000E+00  0.000E+00  0.000E+00  1.01858E+03  2.950E+00  4.278E+01  4.359E-01  7.931E-02
   1   13    4     8     3    1.6962E+02 -2.9866E+00   1.7261E+02  0.000E+00  0.000E+00  0.000E+00  1.01233E+03  2.959E+00  4.291E+01  4.373E+00 -2.277E-01
   1   13    3     8     4    1.7261E+02 -4.0979E+00   1.7671E+02  0.000E+00  0.000E+00  0.000E+00  1.00611E+03  2.982E+00  4.324E+01  4.407E+00 -3.100E-01
   1   13    2     8     5    1.7671E+02 -3.0305E+00   1.7974E+02  0.000E+00  0.000E+00  0.000E+00  9.99880E+02  3.005E+00  4.357E+01  4.440E+00 -2.275E-01
   1   13    1     8     6    1.7974E+02 -2.2374E+00   1.8197E+02  0.000E+00  0.000E+00  0.000E+00  9.94897E+02  3.022E+00  4.381E+01  2.679E+00 -2.784E-01
   1    8    6     9     1    4.4264E-07  0.0000E+00   4.4264E-07  0.000E+00  0.000E+00  0.000E+00  1.07875E+03  7.379E-05  4.000E+00  0.000E+00  1.000E+00
   1    8    5     9     2    4.4264E-07  0.0000E+00   4.4264E-07  0.000E+00  0.000E+00  0.000E+00  1.07825E+03  7.379E-05  4.000E+00  0.000E+00  1.000E+00



 UBDSV3 SAVING "           GW ET" ON UNIT  61 AT TIME STEP 4, STRESS PERIOD 5
 UBDSV3 SAVING "    UZF RECHARGE" ON UNIT  61 AT TIME STEP 4, STRESS PERIOD 5
 UBDSV3 SAVING " SURFACE LEAKAGE" ON UNIT  61 AT TIME STEP 4, STRESS PERIOD 5
 UBDSV3 SAVING "       HORT+DUNN" ON UNIT  61 AT TIME STEP 4, STRESS PERIOD 5
 UBDSV3 SAVING "  STORAGE CHANGE" ON UNIT  61 AT TIME STEP 4, STRESS PERIOD 5


UNSATURATED ZONE PACKAGE VOLUMETRIC BUDGET FOR  TIME STEP     4 STRESS PERIOD    5
  ------------------------------------------------------------------------------



     CUMULATIVE VOLUMES      L**3       RATES FOR THIS TIME STEP      L**3/T
     ------------------                 ------------------------

           IN:                                      IN:
           ---                                      ---
        INFILTRATION =    61111936.7178          INFILTRATION =           0.8475

          OUT:                                     OUT:
          ----                                     ----
              UZF ET =     8204634.9489                UZF ET =           4.5675
        UZF RECHARGE =       73224.0000          UZF RECHARGE =       0.0000E+00

            IN - OUT =    52834077.7690              IN - OUT =          -3.7200

          STORAGE:                                 STORAGE:
          --------                                 --------
      STORAGE CHANGE =    52855055.4049        STORAGE CHANGE =          -3.7200

 PERCENT DISCREPANCY IS DIFFERENCE BETWEEN IN-OUT MINUS CHANGE IN STORAGE
 DIVIDED BY THE AVERAGE OF IN AND OUT TIMES 100

 PERCENT DISCREPANCY =          -0.01     PERCENT DISCREPANCY =           0.00






 

            AG WELLS      PERIOD    5   STEP   4
 AG WELL      1   LAYER   1   ROW     6   COL     4   RATE   -1.844331E-08
 AG WELL      2   LAYER   1   ROW     6   COL     5   RATE   -1.844331E-08
 AG WELL      3   LAYER   1   ROW     7   COL     4   RATE   -1.844331E-08
 AG WELL      4   LAYER   1   ROW     7   COL     5   RATE   -1.844331E-08
 AG WELL      5   LAYER   1   ROW     8   COL     4   RATE   -1.844331E-08
 AG WELL      6   LAYER   1   ROW     8   COL     5   RATE   -1.844331E-08
 
 

   DIVERSION SEGMENTS     PERIOD    5   STEP   4
 SEGMENT      9   RATE    4.426394E-07
 
 

        SW IRRIGATION     PERIOD    5   STEP   4
 SEGMENT      9   ROW     6   COL     4   RATE    5.533103E-08
 SEGMENT      9   ROW     6   COL     5   RATE    5.533103E-08
 SEGMENT      9   ROW     7   COL     4   RATE    5.533103E-08
 SEGMENT      9   ROW     7   COL     5   RATE    5.533103E-08
 SEGMENT      9   ROW     8   COL     4   RATE    5.533103E-08
 SEGMENT      9   ROW     8   COL     5   RATE    5.533103E-08
 
 

        GW IRRIGATION     PERIOD    5   STEP   4
 AG WELL      1   ROW     6   COL     4   RATE    1.844331E-08
 AG WELL      2   ROW     6   COL     5   RATE    1.844331E-08
 AG WELL      3   ROW     7   COL     4   RATE    1.844331E-08
 AG WELL      4   ROW     7   COL     5   RATE    1.844331E-08
 AG WELL      5   ROW     8   COL     4   RATE    1.844331E-08
 AG WELL      6   ROW     8   COL     5   RATE    1.844331E-08
 
1
  VOLUMETRIC BUDGET FOR AGRICULTURAL FIELDS AT  END OF TIME STEP    4, STRESS PERIOD   5
  ------------------------------------------------------------------------------

     CUMULATIVE VOLUMES      L**3       RATES FOR THIS TIME STEP      L**3/T
     ------------------                 ------------------------

           IN:                                      IN:
           ---                                      ---
               AG WELLS  =    52600000.0000                 AG WELLS  =       1.1066E-07
      DIVERSION SEGMENTS =     1454718.5000        DIVERSION SEGMENTS =       4.4264E-07
       IRRIGATION PONDS  =           0.0000         IRRIGATION PONDS  =           0.0000
           GW IRRIGATION =           0.0000             GW IRRIGATION =           0.0000
           SW IRRIGATION =           0.0000             SW IRRIGATION =           0.0000
        SYSTEM LOSSES GW =           0.0000          SYSTEM LOSSES GW =           0.0000
        SYSTEM LOSSES SW =           0.0000          SYSTEM LOSSES SW =           0.0000

                TOTAL IN =    54054720.0000                  TOTAL IN =       5.5330E-07

          OUT:                                     OUT:
          ----                                     ----
               AG WELLS  =           0.0000                 AG WELLS  =           0.0000
      DIVERSION SEGMENTS =           0.0000        DIVERSION SEGMENTS =           0.0000
       IRRIGATION PONDS  =           0.0000         IRRIGATION PONDS  =           0.0000
           GW IRRIGATION =    52600000.0000             GW IRRIGATION =       1.1066E-07
           SW IRRIGATION =     1454747.5000             SW IRRIGATION =       4.4265E-07
        SYSTEM LOSSES GW =           0.0000          SYSTEM LOSSES GW =           0.0000
        SYSTEM LOSSES SW =           0.0000          SYSTEM LOSSES SW =           0.0000

               TOTAL OUT =    54054748.0000                 TOTAL OUT =       5.5331E-07

                IN - OUT =         -28.0000                  IN - OUT =      -8.8107E-12

     PERCENT DISCREPANCY =          -0.00         PERCENT DISCREPANCY =          -0.00



1
  VOLUMETRIC BUDGET FOR ENTIRE MODEL AT END OF TIME STEP    4, STRESS PERIOD   5
  ------------------------------------------------------------------------------

     CUMULATIVE VOLUMES      L**3       RATES FOR THIS TIME STEP      L**3/T
     ------------------                 ------------------------

           IN:                                      IN:
           ---                                      ---
             STORAGE     =    60644308.0000               STORAGE     =          12.1132
       CONSTANT HEAD     =           0.0000         CONSTANT HEAD     =           0.0000
     HEAD DEP BOUNDS     =     2378927.5000       HEAD DEP BOUNDS     =           0.2857
      STREAM LEAKAGE     =    99858536.0000        STREAM LEAKAGE     =          11.3785
        UZF RECHARGE     =       73223.9531          UZF RECHARGE     =           0.0000
               GW ET     =           0.0000                 GW ET     =           0.0000
     SURFACE LEAKAGE     =           0.0000       SURFACE LEAKAGE     =           0.0000
           AG WELLS      =           0.0000             AG WELLS      =           0.0000

                TOTAL IN =   162954992.0000                  TOTAL IN =          23.7774

          OUT:                                     OUT:
          ----                                     ----
             STORAGE     =    21140746.0000               STORAGE     =          11.0635
       CONSTANT HEAD     =           0.0000         CONSTANT HEAD     =           0.0000
     HEAD DEP BOUNDS     =     2419731.7500       HEAD DEP BOUNDS     =           0.2938
      STREAM LEAKAGE     =    86759656.0000        STREAM LEAKAGE     =          12.3524
        UZF RECHARGE     =           0.0000          UZF RECHARGE     =           0.0000
               GW ET     =       38728.5586                 GW ET     =       6.7766E-02
     SURFACE LEAKAGE     =           0.0000       SURFACE LEAKAGE     =           0.0000
           AG WELLS      =    52600000.0000             AG WELLS      =       1.1066E-07

               TOTAL OUT =   162958864.0000                 TOTAL OUT =          23.7774

                IN - OUT =       -3872.0000                  IN - OUT =       1.9073E-06

     PERCENT DISCREPANCY =          -0.00         PERCENT DISCREPANCY =           0.00






         TIME SUMMARY AT END OF TIME STEP    4 IN STRESS PERIOD    5
                    SECONDS     MINUTES      HOURS       DAYS        YEARS
                    -----------------------------------------------------------
   TIME STEP LENGTH  87667.      1461.1      24.352      1.0147     2.77799E-03
 STRESS PERIOD TIME 3.50667E+05  5844.4      97.407      4.0586     1.11120E-02
         TOTAL TIME 8.32706E+06 1.38784E+05  2313.1      96.378     0.26387    
1
 
 SOLVING FOR HEAD 
                                                   Max.-Head-Change                         Max.-Flux-Residual
  Residual-Control   Outer-Iter.   Inner-Iter.     Column Row Layer    Maximum-Head-Change  Column Row Layer    Maximum-Flux-Residual          L2-NORM 
          0                 1           2             5    8     1       0.4473905246E-01       5    8    1         0.2461621983E+01      0.5502083708E+01
          0                 2           2             5    8     1      -0.4351854875E-02       5    8    1        -0.2461597670E+00      0.5498716239E+00
          0                 3           2             5    8     1       0.2963455288E-03       5    8    1         0.1723121431E-01      0.3846062167E-01
          0                 4           1             5    8     1      -0.1179186445E-04       5    8    1        -0.7047575434E-03      0.1571039857E-02

    ------------------------------------------------
       NWT REQUIRED            4 OUTER ITERATIONS 
       AND A TOTAL OF          7 INNER ITERATIONS.
    ------------------------------------------------

 NO OUTPUT CONTROL FOR STRESS PERIOD    5   TIME STEP    5
 
 SOLVING FOR HEAD 
                                                   Max.-Head-Change                         Max.-Flux-Residual
  Residual-Control   Outer-Iter.   Inner-Iter.     Column Row Layer    Maximum-Head-Change  Column Row Layer    Maximum-Flux-Residual          L2-NORM 
          0                 1           2             5    8     1       0.4229329027E-01       5    8    1         0.2324949480E+01      0.5243366143E+01
          0                 2           2             5    8     1      -0.4113952479E-02       5    8    1        -0.2324927716E+00      0.5240380294E+00
          0                 3           2             5    8     1       0.2801452195E-03       5    8    1         0.1627452163E-01      0.3665626067E-01
          0                 4           1             5    8     1      -0.1114723935E-04       5    8    1        -0.6656287737E-03      0.1497655301E-02

    ------------------------------------------------
       NWT REQUIRED            4 OUTER ITERATIONS 
       AND A TOTAL OF          7 INNER ITERATIONS.
    ------------------------------------------------

 OUTPUT CONTROL FOR STRESS PERIOD    5   TIME STEP    6
    PRINT BUDGET
    SAVE BUDGET
 UBDSV1 SAVING "         STORAGE" ON UNIT 102 AT TIME STEP 6, STRESS PERIOD5
 UBDSV2 SAVING "   CONSTANT HEAD" ON UNIT 102 AT TIME STEP 6, STRESS PERIOD 5
 UBDSV1 SAVING "FLOW RIGHT FACE " ON UNIT 102 AT TIME STEP 6, STRESS PERIOD5
 UBDSV1 SAVING "FLOW FRONT FACE " ON UNIT 102 AT TIME STEP 6, STRESS PERIOD5

  HEAD DEP BOUNDS   PERIOD    5   STEP     6
 BOUNDARY      1   LAYER   1   ROW    13   COL     1   RATE   -0.293469    
 BOUNDARY      2   LAYER   1   ROW    14   COL     9   RATE    0.285740    



 STREAM LISTING     PERIOD      5   STEP        6

 LAYER ROW COL. STREAM  RCH.  FLOW INTO     FLOW TO   FLOW OUT OF   OVRLND.     DIRECT     STREAM       STREAM     STREAM     STREAM   STREAMBED  STREAMBED
                SEG.NO.  NO.  STRM. RCH.    AQUIFER    STRM. RCH.    RUNOFF     PRECIP       ET          HEAD       DEPTH      WIDTH   CONDCTNC.   GRADIENT

   1    1    1     1     1    2.1000E+01  2.2592E-01   2.0774E+01  0.000E+00  0.000E+00  0.000E+00  1.09416E+03  1.115E+00  1.220E+01  5.490E-02  1.372E+00
   1    2    2     1     2    2.0774E+01  3.4916E-01   2.0425E+01  0.000E+00  0.000E+00  0.000E+00  1.08917E+03  1.110E+00  1.214E+01  8.495E-02  1.370E+00
   1    3    3     1     3    2.0425E+01  2.9709E-01   2.0128E+01  0.000E+00  0.000E+00  0.000E+00  1.08352E+03  1.105E+00  1.206E+01  7.238E-02  1.368E+00
   1    3    4     1     4    2.0128E+01  2.7299E-01   1.9855E+01  0.000E+00  0.000E+00  0.000E+00  1.07851E+03  1.100E+00  1.200E+01  6.659E-02  1.367E+00
   1    4    5     2     1    1.7855E+01  3.1056E-01   1.7544E+01  0.000E+00  0.000E+00  0.000E+00  1.07292E+03  9.816E-01  1.200E+01  7.800E-02  1.327E+00
   1    5    6     2     2    1.7544E+01  2.3834E-01   1.7306E+01  0.000E+00  0.000E+00  0.000E+00  1.06748E+03  9.724E-01  1.200E+01  6.000E-02  1.324E+00
   1    6    6     2     3    1.7306E+01  2.3787E-01   1.7068E+01  0.000E+00  0.000E+00  0.000E+00  1.06276E+03  9.644E-01  1.200E+01  6.000E-02  1.321E+00
   1    7    6     2     4    1.7068E+01  2.3738E-01   1.6831E+01  0.000E+00  0.000E+00  0.000E+00  1.05803E+03  9.564E-01  1.200E+01  6.000E-02  1.319E+00
   1    8    6     2     5    1.6831E+01  2.3690E-01   1.6594E+01  0.000E+00  0.000E+00  0.000E+00  1.05331E+03  9.483E-01  1.200E+01  6.000E-02  1.316E+00
   1    3    5     3     1    2.0000E+00  2.8252E-01   1.7175E+00  0.000E+00  0.000E+00  0.000E+00  1.07555E+03  1.909E+00  9.636E+00  7.227E-02  1.955E+00
   1    3    6     3     2    1.7175E+00  2.4905E-01   1.4684E+00  0.000E+00  0.000E+00  0.000E+00  1.07264E+03  1.727E+00  8.909E+00  6.682E-02  1.864E+00
   1    3    7     3     3    1.4684E+00  1.9718E-01   1.2712E+00  0.000E+00  0.000E+00  0.000E+00  1.06987E+03  1.555E+00  8.218E+00  5.547E-02  1.777E+00
   1    4    8     3     4    1.2712E+00  2.2567E-01   1.0456E+00  0.000E+00  0.000E+00  0.000E+00  1.06682E+03  1.364E+00  7.455E+00  6.709E-02  1.682E+00
   1    5    8     3     5    1.0456E+00  1.5790E-01   8.8768E-01  0.000E+00  0.000E+00  0.000E+00  1.06362E+03  1.164E+00  6.655E+00  4.991E-02  1.582E+00
   1    6    8     3     6    8.8768E-01  5.5980E-02   8.3170E-01  0.000E+00  0.000E+00  0.000E+00  1.06158E+03  1.036E+00  6.145E+00  1.844E-02  1.518E+00
   1    5   10     4     1    1.0000E+01  9.0919E-02   9.9091E+00  0.000E+00  0.000E+00  0.000E+00  1.07836E+03  6.368E-01  1.000E+01  2.500E-02  1.212E+00
   1    5    9     4     2    9.9091E+00  1.8158E-01   9.7275E+00  0.000E+00  0.000E+00  0.000E+00  1.07154E+03  6.315E-01  1.000E+01  5.000E-02  1.211E+00
   1    6    8     4     3    9.7275E+00  1.2689E-01   9.6006E+00  0.000E+00  0.000E+00  0.000E+00  1.06381E+03  6.256E-01  1.000E+01  3.500E-02  1.209E+00
   1    6    8     5     1    1.0432E+01  2.2686E-01   1.0205E+01  0.000E+00  0.000E+00  0.000E+00  1.05868E+03  6.790E-01  1.542E+01  6.166E-02  1.226E+00
   1    7    7     5     2    1.0205E+01  2.7894E-01   9.9265E+00  0.000E+00  0.000E+00  0.000E+00  1.05417E+03  6.732E-01  1.519E+01  7.594E-02  1.224E+00
   1    8    7     5     3    9.9265E+00  1.9221E-01   9.7343E+00  0.000E+00  0.000E+00  0.000E+00  1.04992E+03  6.676E-01  1.497E+01  5.241E-02  1.223E+00
   1    8    6     5     4    9.7343E+00  1.3577E-01   9.5985E+00  0.000E+00  0.000E+00  0.000E+00  1.04691E+03  6.637E-01  1.482E+01  3.706E-02  1.221E+00
   1    9    6     6     1    2.6192E+01  2.5512E-01   2.5937E+01  0.000E+00  0.000E+00  0.000E+00  1.04398E+03  1.252E+00  1.200E+01  6.000E-02  1.417E+00
   1   10    7     6     2    2.5937E+01  2.5468E-01   2.5683E+01  0.000E+00  0.000E+00  0.000E+00  1.03943E+03  1.245E+00  1.200E+01  6.000E-02  1.415E+00
   1   11    7     6     3    2.5683E+01  2.5424E-01   2.5428E+01  0.000E+00  0.000E+00  0.000E+00  1.03487E+03  1.237E+00  1.200E+01  6.000E-02  1.412E+00
   1   12    7     6     4    2.5428E+01  2.5379E-01   2.5175E+01  0.000E+00  0.000E+00  0.000E+00  1.03032E+03  1.230E+00  1.200E+01  6.000E-02  1.410E+00
   1   13    7     6     5    2.5175E+01  6.6799E-05   2.5175E+01  0.000E+00  0.000E+00  0.000E+00  1.02714E+03  1.226E+00  1.200E+01  2.400E-02  9.278E-04
   1   14    9     7     1    1.5000E+02  1.3355E+00   1.4866E+02  0.000E+00  0.000E+00  0.000E+00  1.03987E+03  2.288E+00  5.529E+01  5.593E-01  7.960E-01
   1   13    8     7     2    1.4866E+02  1.8262E+00   1.4684E+02  0.000E+00  0.000E+00  0.000E+00  1.03478E+03  2.279E+00  5.526E+01  6.148E-01  9.902E-01
   1   13    7     7     3    1.4684E+02  1.4283E+00   1.4541E+02  0.000E+00  0.000E+00  0.000E+00  1.02969E+03  2.271E+00  5.522E+01  5.585E-01  8.525E-01
   1   13    6     8     1    1.7058E+02  8.5948E-01   1.6973E+02  0.000E+00  0.000E+00  0.000E+00  1.02483E+03  2.953E+00  4.282E+01  4.364E-01  6.565E-01
   1   13    5     8     2    1.6973E+02  1.0451E-01   1.6962E+02  0.000E+00  0.000E+00  0.000E+00  1.01858E+03  2.950E+00  4.278E+01  4.359E-01  7.992E-02
   1   13    4     8     3    1.6962E+02 -2.9283E+00   1.7255E+02  0.000E+00  0.000E+00  0.000E+00  1.01233E+03  2.959E+00  4.291E+01  4.373E+00 -2.232E-01
   1   13    3     8     4    1.7255E+02 -4.0402E+00   1.7659E+02  0.000E+00  0.000E+00  0.000E+00  1.00611E+03  2.982E+00  4.323E+01  4.406E+00 -3.057E-01
   1   13    2     8     5    1.7659E+02 -2.9686E+00   1.7956E+02  0.000E+00  0.000E+00  0.000E+00  9.99879E+02  3.004E+00  4.356E+01  4.439E+00 -2.229E-01
   1   13    1     8     6    1.7956E+02 -2.2159E+00   1.8177E+02  0.000E+00  0.000E+00  0.000E+00  9.94895E+02  3.020E+00  4.379E+01  2.678E+00 -2.758E-01
   1    8    6     9     1    0.0000E+00  0.0000E+00   0.0000E+00  0.000E+00  0.000E+00  0.000E+00  1.07875E+03  0.000E+00  4.000E+00  0.000E+00  1.000E+00
   1    8    5     9     2    0.0000E+00  0.0000E+00   0.0000E+00  0.000E+00  0.000E+00  0.000E+00  1.07825E+03  0.000E+00  4.000E+00  0.000E+00  1.000E+00



 UBDSV3 SAVING "           GW ET" ON UNIT  61 AT TIME STEP 6, STRESS PERIOD 5
 UBDSV3 SAVING "    UZF RECHARGE" ON UNIT  61 AT TIME STEP 6, STRESS PERIOD 5
 UBDSV3 SAVING " SURFACE LEAKAGE" ON UNIT  61 AT TIME STEP 6, STRESS PERIOD 5
 UBDSV3 SAVING "       HORT+DUNN" ON UNIT  61 AT TIME STEP 6, STRESS PERIOD 5
 UBDSV3 SAVING "  STORAGE CHANGE" ON UNIT  61 AT TIME STEP 6, STRESS PERIOD 5


UNSATURATED ZONE PACKAGE VOLUMETRIC BUDGET FOR  TIME STEP     6 STRESS PERIOD    5
  ------------------------------------------------------------------------------



     CUMULATIVE VOLUMES      L**3       RATES FOR THIS TIME STEP      L**3/T
     ------------------                 ------------------------

           IN:                                      IN:
           ---                                      ---
        INFILTRATION =    61260531.7482          INFILTRATION =           0.8475

          OUT:                                     OUT:
          ----                                     ----
              UZF ET =     9005485.9641                UZF ET =           4.5677
        UZF RECHARGE =       73224.0000          UZF RECHARGE =       0.0000E+00

            IN - OUT =    52181821.7841              IN - OUT =          -3.7202

          STORAGE:                                 STORAGE:
          --------                                 --------
      STORAGE CHANGE =    52202799.4221        STORAGE CHANGE =          -3.7202

 PERCENT DISCREPANCY IS DIFFERENCE BETWEEN IN-OUT MINUS CHANGE IN STORAGE
 DIVIDED BY THE AVERAGE OF IN AND OUT TIMES 100

 PERCENT DISCREPANCY =          -0.01     PERCENT DISCREPANCY =          -0.00






 

            AG WELLS      PERIOD    5   STEP   6
 AG WELL      1   LAYER   1   ROW     6   COL     4   RATE     0.00000    
 AG WELL      2   LAYER   1   ROW     6   COL     5   RATE     0.00000    
 AG WELL      3   LAYER   1   ROW     7   COL     4   RATE     0.00000    
 AG WELL      4   LAYER   1   ROW     7   COL     5   RATE     0.00000    
 AG WELL      5   LAYER   1   ROW     8   COL     4   RATE     0.00000    
 AG WELL      6   LAYER   1   ROW     8   COL     5   RATE     0.00000    
 
 

   DIVERSION SEGMENTS     PERIOD    5   STEP   6
 SEGMENT      9   RATE     0.00000    
 
 

        SW IRRIGATION     PERIOD    5   STEP   6
 SEGMENT      9   ROW     6   COL     4   RATE     0.00000    
 SEGMENT      9   ROW     6   COL     5   RATE     0.00000    
 SEGMENT      9   ROW     7   COL     4   RATE     0.00000    
 SEGMENT      9   ROW     7   COL     5   RATE     0.00000    
 SEGMENT      9   ROW     8   COL     4   RATE     0.00000    
 SEGMENT      9   ROW     8   COL     5   RATE     0.00000    
 
 

        GW IRRIGATION     PERIOD    5   STEP   6
 AG WELL      1   ROW     6   COL     4   RATE     0.00000    
 AG WELL      2   ROW     6   COL     5   RATE     0.00000    
 AG WELL      3   ROW     7   COL     4   RATE     0.00000    
 AG WELL      4   ROW     7   COL     5   RATE     0.00000    
 AG WELL      5   ROW     8   COL     4   RATE     0.00000    
 AG WELL      6   ROW     8   COL     5   RATE     0.00000    
 
1
  VOLUMETRIC BUDGET FOR AGRICULTURAL FIELDS AT  END OF TIME STEP    6, STRESS PERIOD   5
  ------------------------------------------------------------------------------

     CUMULATIVE VOLUMES      L**3       RATES FOR THIS TIME STEP      L**3/T
     ------------------                 ------------------------

           IN:                                      IN:
           ---                                      ---
               AG WELLS  =    52600000.0000                 AG WELLS  =           0.0000
      DIVERSION SEGMENTS =     1454718.5000        DIVERSION SEGMENTS =           0.0000
       IRRIGATION PONDS  =           0.0000         IRRIGATION PONDS  =           0.0000
           GW IRRIGATION =           0.0000             GW IRRIGATION =           0.0000
           SW IRRIGATION =           0.0000             SW IRRIGATION =           0.0000
        SYSTEM LOSSES GW =           0.0000          SYSTEM LOSSES GW =           0.0000
        SYSTEM LOSSES SW =           0.0000          SYSTEM LOSSES SW =           0.0000

                TOTAL IN =    54054720.0000                  TOTAL IN =           0.0000

          OUT:                                     OUT:
          ----                                     ----
               AG WELLS  =           0.0000                 AG WELLS  =           0.0000
      DIVERSION SEGMENTS =           0.0000        DIVERSION SEGMENTS =           0.0000
       IRRIGATION PONDS  =           0.0000         IRRIGATION PONDS  =           0.0000
           GW IRRIGATION =    52600000.0000             GW IRRIGATION =           0.0000
           SW IRRIGATION =     1454747.5000             SW IRRIGATION =           0.0000
        SYSTEM LOSSES GW =           0.0000          SYSTEM LOSSES GW =           0.0000
        SYSTEM LOSSES SW =           0.0000          SYSTEM LOSSES SW =           0.0000

               TOTAL OUT =    54054748.0000                 TOTAL OUT =           0.0000

                IN - OUT =         -28.0000                  IN - OUT =           0.0000

     PERCENT DISCREPANCY =          -0.00         PERCENT DISCREPANCY =           0.00



1
  VOLUMETRIC BUDGET FOR ENTIRE MODEL AT END OF TIME STEP    6, STRESS PERIOD   5
  ------------------------------------------------------------------------------

     CUMULATIVE VOLUMES      L**3       RATES FOR THIS TIME STEP      L**3/T
     ------------------                 ------------------------

           IN:                                      IN:
           ---                                      ---
             STORAGE     =    62635792.0000               STORAGE     =          11.1177
       CONSTANT HEAD     =           0.0000         CONSTANT HEAD     =           0.0000
     HEAD DEP BOUNDS     =     2429027.2500       HEAD DEP BOUNDS     =           0.2857
      STREAM LEAKAGE     =   101853704.0000        STREAM LEAKAGE     =          11.3796
        UZF RECHARGE     =       73223.9531          UZF RECHARGE     =           0.0000
               GW ET     =           0.0000                 GW ET     =           0.0000
     SURFACE LEAKAGE     =           0.0000       SURFACE LEAKAGE     =           0.0000
           AG WELLS      =           0.0000             AG WELLS      =           0.0000

                TOTAL IN =   166991744.0000                  TOTAL IN =          22.7830

          OUT:                                     OUT:
          ----                                     ----
             STORAGE     =    22979464.0000               STORAGE     =          10.3022
       CONSTANT HEAD     =           0.0000         CONSTANT HEAD     =           0.0000
     HEAD DEP BOUNDS     =     2471201.2500       HEAD DEP BOUNDS     =           0.2935
      STREAM LEAKAGE     =    88898816.0000        STREAM LEAKAGE     =          12.1530
        UZF RECHARGE     =           0.0000          UZF RECHARGE     =           0.0000
               GW ET     =       46130.7891                 GW ET     =       3.4316E-02
     SURFACE LEAKAGE     =           0.0000       SURFACE LEAKAGE     =           0.0000
           AG WELLS      =    52600000.0000             AG WELLS      =           0.0000

               TOTAL OUT =   166995616.0000                 TOTAL OUT =          22.7830

                IN - OUT =       -3872.0000                  IN - OUT =           0.0000

     PERCENT DISCREPANCY =          -0.00         PERCENT DISCREPANCY =           0.00






         TIME SUMMARY AT END OF TIME STEP    6 IN STRESS PERIOD    5
                    SECONDS     MINUTES      HOURS       DAYS        YEARS
                    -----------------------------------------------------------
   TIME STEP LENGTH  87667.      1461.1      24.352      1.0147     2.77799E-03
 STRESS PERIOD TIME 5.26000E+05  8766.7      146.11      6.0880     1.66679E-02
         TOTAL TIME 8.50239E+06 1.41707E+05  2361.8      98.407     0.26942    
1
 
 SOLVING FOR HEAD 
                                                   Max.-Head-Change                         Max.-Flux-Residual
  Residual-Control   Outer-Iter.   Inner-Iter.     Column Row Layer    Maximum-Head-Change  Column Row Layer    Maximum-Flux-Residual          L2-NORM 
          0                 1           2             5    8     1       0.4001733988E-01       5    8    1         0.2197854353E+01      0.5002586581E+01
          0                 2           2             5    8     1      -0.3892568267E-02       5    8    1        -0.2197835130E+00      0.4998027376E+00
          0                 3           2             5    8     1       0.2650697336E-03       5    8    1         0.1538487092E-01      0.3496375417E-01
          0                 4           1             5    8     1      -0.1054737170E-04       5    8    1        -0.6292420098E-03      0.1428679758E-02

    ------------------------------------------------
       NWT REQUIRED            4 OUTER ITERATIONS 
       AND A TOTAL OF          7 INNER ITERATIONS.
    ------------------------------------------------

 OUTPUT CONTROL FOR STRESS PERIOD    5   TIME STEP    7
    PRINT BUDGET
    SAVE BUDGET
 UBDSV1 SAVING "         STORAGE" ON UNIT 102 AT TIME STEP 7, STRESS PERIOD5
 UBDSV2 SAVING "   CONSTANT HEAD" ON UNIT 102 AT TIME STEP 7, STRESS PERIOD 5
 UBDSV1 SAVING "FLOW RIGHT FACE " ON UNIT 102 AT TIME STEP 7, STRESS PERIOD5
 UBDSV1 SAVING "FLOW FRONT FACE " ON UNIT 102 AT TIME STEP 7, STRESS PERIOD5

  HEAD DEP BOUNDS   PERIOD    5   STEP     7
 BOUNDARY      1   LAYER   1   ROW    13   COL     1   RATE   -0.293309    
 BOUNDARY      2   LAYER   1   ROW    14   COL     9   RATE    0.285741    



 STREAM LISTING     PERIOD      5   STEP        7

 LAYER ROW COL. STREAM  RCH.  FLOW INTO     FLOW TO   FLOW OUT OF   OVRLND.     DIRECT     STREAM       STREAM     STREAM     STREAM   STREAMBED  STREAMBED
                SEG.NO.  NO.  STRM. RCH.    AQUIFER    STRM. RCH.    RUNOFF     PRECIP       ET          HEAD       DEPTH      WIDTH   CONDCTNC.   GRADIENT

   1    1    1     1     1    2.1000E+01  2.2592E-01   2.0774E+01  0.000E+00  0.000E+00  0.000E+00  1.09416E+03  1.115E+00  1.220E+01  5.490E-02  1.372E+00
   1    2    2     1     2    2.0774E+01  3.4916E-01   2.0425E+01  0.000E+00  0.000E+00  0.000E+00  1.08917E+03  1.110E+00  1.214E+01  8.495E-02  1.370E+00
   1    3    3     1     3    2.0425E+01  2.9709E-01   2.0128E+01  0.000E+00  0.000E+00  0.000E+00  1.08352E+03  1.105E+00  1.206E+01  7.238E-02  1.368E+00
   1    3    4     1     4    2.0128E+01  2.7299E-01   1.9855E+01  0.000E+00  0.000E+00  0.000E+00  1.07851E+03  1.100E+00  1.200E+01  6.659E-02  1.367E+00
   1    4    5     2     1    1.7855E+01  3.1056E-01   1.7544E+01  0.000E+00  0.000E+00  0.000E+00  1.07292E+03  9.816E-01  1.200E+01  7.800E-02  1.327E+00
   1    5    6     2     2    1.7544E+01  2.3834E-01   1.7306E+01  0.000E+00  0.000E+00  0.000E+00  1.06748E+03  9.724E-01  1.200E+01  6.000E-02  1.324E+00
   1    6    6     2     3    1.7306E+01  2.3787E-01   1.7068E+01  0.000E+00  0.000E+00  0.000E+00  1.06276E+03  9.644E-01  1.200E+01  6.000E-02  1.321E+00
   1    7    6     2     4    1.7068E+01  2.3738E-01   1.6831E+01  0.000E+00  0.000E+00  0.000E+00  1.05803E+03  9.564E-01  1.200E+01  6.000E-02  1.319E+00
   1    8    6     2     5    1.6831E+01  2.3690E-01   1.6594E+01  0.000E+00  0.000E+00  0.000E+00  1.05331E+03  9.483E-01  1.200E+01  6.000E-02  1.316E+00
   1    3    5     3     1    2.0000E+00  2.8252E-01   1.7175E+00  0.000E+00  0.000E+00  0.000E+00  1.07555E+03  1.909E+00  9.636E+00  7.227E-02  1.955E+00
   1    3    6     3     2    1.7175E+00  2.4905E-01   1.4684E+00  0.000E+00  0.000E+00  0.000E+00  1.07264E+03  1.727E+00  8.909E+00  6.682E-02  1.864E+00
   1    3    7     3     3    1.4684E+00  1.9718E-01   1.2712E+00  0.000E+00  0.000E+00  0.000E+00  1.06987E+03  1.555E+00  8.218E+00  5.547E-02  1.777E+00
   1    4    8     3     4    1.2712E+00  2.2567E-01   1.0456E+00  0.000E+00  0.000E+00  0.000E+00  1.06682E+03  1.364E+00  7.455E+00  6.709E-02  1.682E+00
   1    5    8     3     5    1.0456E+00  1.5790E-01   8.8768E-01  0.000E+00  0.000E+00  0.000E+00  1.06362E+03  1.164E+00  6.655E+00  4.991E-02  1.582E+00
   1    6    8     3     6    8.8768E-01  5.5980E-02   8.3170E-01  0.000E+00  0.000E+00  0.000E+00  1.06158E+03  1.036E+00  6.145E+00  1.844E-02  1.518E+00
   1    5   10     4     1    1.0000E+01  9.0919E-02   9.9091E+00  0.000E+00  0.000E+00  0.000E+00  1.07836E+03  6.368E-01  1.000E+01  2.500E-02  1.212E+00
   1    5    9     4     2    9.9091E+00  1.8158E-01   9.7275E+00  0.000E+00  0.000E+00  0.000E+00  1.07154E+03  6.315E-01  1.000E+01  5.000E-02  1.211E+00
   1    6    8     4     3    9.7275E+00  1.2689E-01   9.6006E+00  0.000E+00  0.000E+00  0.000E+00  1.06381E+03  6.256E-01  1.000E+01  3.500E-02  1.209E+00
   1    6    8     5     1    1.0432E+01  2.2686E-01   1.0205E+01  0.000E+00  0.000E+00  0.000E+00  1.05868E+03  6.790E-01  1.542E+01  6.166E-02  1.226E+00
   1    7    7     5     2    1.0205E+01  2.7894E-01   9.9265E+00  0.000E+00  0.000E+00  0.000E+00  1.05417E+03  6.732E-01  1.519E+01  7.594E-02  1.224E+00
   1    8    7     5     3    9.9265E+00  1.9221E-01   9.7343E+00  0.000E+00  0.000E+00  0.000E+00  1.04992E+03  6.676E-01  1.497E+01  5.241E-02  1.223E+00
   1    8    6     5     4    9.7343E+00  1.3577E-01   9.5985E+00  0.000E+00  0.000E+00  0.000E+00  1.04691E+03  6.637E-01  1.482E+01  3.706E-02  1.221E+00
   1    9    6     6     1    2.6192E+01  2.5512E-01   2.5937E+01  0.000E+00  0.000E+00  0.000E+00  1.04398E+03  1.252E+00  1.200E+01  6.000E-02  1.417E+00
   1   10    7     6     2    2.5937E+01  2.5468E-01   2.5683E+01  0.000E+00  0.000E+00  0.000E+00  1.03943E+03  1.245E+00  1.200E+01  6.000E-02  1.415E+00
   1   11    7     6     3    2.5683E+01  2.5424E-01   2.5428E+01  0.000E+00  0.000E+00  0.000E+00  1.03487E+03  1.237E+00  1.200E+01  6.000E-02  1.412E+00
   1   12    7     6     4    2.5428E+01  2.5379E-01   2.5175E+01  0.000E+00  0.000E+00  0.000E+00  1.03032E+03  1.230E+00  1.200E+01  6.000E-02  1.410E+00
   1   13    7     6     5    2.5175E+01  5.8356E-05   2.5175E+01  0.000E+00  0.000E+00  0.000E+00  1.02714E+03  1.226E+00  1.200E+01  2.400E-02  8.105E-04
   1   14    9     7     1    1.5000E+02  1.3356E+00   1.4866E+02  0.000E+00  0.000E+00  0.000E+00  1.03987E+03  2.288E+00  5.529E+01  5.593E-01  7.960E-01
   1   13    8     7     2    1.4866E+02  1.8261E+00   1.4684E+02  0.000E+00  0.000E+00  0.000E+00  1.03478E+03  2.279E+00  5.526E+01  6.148E-01  9.901E-01
   1   13    7     7     3    1.4684E+02  1.4281E+00   1.4541E+02  0.000E+00  0.000E+00  0.000E+00  1.02969E+03  2.271E+00  5.522E+01  5.585E-01  8.524E-01
   1   13    6     8     1    1.7058E+02  8.5991E-01   1.6972E+02  0.000E+00  0.000E+00  0.000E+00  1.02483E+03  2.953E+00  4.282E+01  4.364E-01  6.569E-01
   1   13    5     8     2    1.6972E+02  1.0492E-01   1.6962E+02  0.000E+00  0.000E+00  0.000E+00  1.01858E+03  2.950E+00  4.278E+01  4.359E-01  8.023E-02
   1   13    4     8     3    1.6962E+02 -2.9037E+00   1.7252E+02  0.000E+00  0.000E+00  0.000E+00  1.01233E+03  2.959E+00  4.291E+01  4.372E+00 -2.214E-01
   1   13    3     8     4    1.7252E+02 -4.0155E+00   1.7654E+02  0.000E+00  0.000E+00  0.000E+00  1.00611E+03  2.981E+00  4.323E+01  4.405E+00 -3.038E-01
   1   13    2     8     5    1.7654E+02 -2.9411E+00   1.7948E+02  0.000E+00  0.000E+00  0.000E+00  9.99879E+02  3.004E+00  4.355E+01  4.438E+00 -2.209E-01
   1   13    1     8     6    1.7948E+02 -2.2056E+00   1.8169E+02  0.000E+00  0.000E+00  0.000E+00  9.94895E+02  3.020E+00  4.379E+01  2.677E+00 -2.746E-01
   1    8    6     9     1    4.4264E-07  0.0000E+00   4.4264E-07  0.000E+00  0.000E+00  0.000E+00  1.07875E+03  7.379E-05  4.000E+00  0.000E+00  1.000E+00
   1    8    5     9     2    4.4264E-07  0.0000E+00   4.4264E-07  0.000E+00  0.000E+00  0.000E+00  1.07825E+03  7.379E-05  4.000E+00  0.000E+00  1.000E+00



 UBDSV3 SAVING "           GW ET" ON UNIT  61 AT TIME STEP 7, STRESS PERIOD 5
 UBDSV3 SAVING "    UZF RECHARGE" ON UNIT  61 AT TIME STEP 7, STRESS PERIOD 5
 UBDSV3 SAVING " SURFACE LEAKAGE" ON UNIT  61 AT TIME STEP 7, STRESS PERIOD 5
 UBDSV3 SAVING "       HORT+DUNN" ON UNIT  61 AT TIME STEP 7, STRESS PERIOD 5
 UBDSV3 SAVING "  STORAGE CHANGE" ON UNIT  61 AT TIME STEP 7, STRESS PERIOD 5


UNSATURATED ZONE PACKAGE VOLUMETRIC BUDGET FOR  TIME STEP     7 STRESS PERIOD    5
  ------------------------------------------------------------------------------



     CUMULATIVE VOLUMES      L**3       RATES FOR THIS TIME STEP      L**3/T
     ------------------                 ------------------------

           IN:                                      IN:
           ---                                      ---
        INFILTRATION =    61334829.2827          INFILTRATION =           0.8475

          OUT:                                     OUT:
          ----                                     ----
              UZF ET =     9405903.4443                UZF ET =           4.5675
        UZF RECHARGE =       73224.0000          UZF RECHARGE =       0.0000E+00

            IN - OUT =    51855701.8384              IN - OUT =          -3.7200

          STORAGE:                                 STORAGE:
          --------                                 --------
      STORAGE CHANGE =    51876679.4654        STORAGE CHANGE =          -3.7200

 PERCENT DISCREPANCY IS DIFFERENCE BETWEEN IN-OUT MINUS CHANGE IN STORAGE
 DIVIDED BY THE AVERAGE OF IN AND OUT TIMES 100

 PERCENT DISCREPANCY =          -0.01     PERCENT DISCREPANCY =           0.00






 

            AG WELLS      PERIOD    5   STEP   7
 AG WELL      1   LAYER   1   ROW     6   COL     4   RATE   -1.844331E-08
 AG WELL      2   LAYER   1   ROW     6   COL     5   RATE   -1.844331E-08
 AG WELL      3   LAYER   1   ROW     7   COL     4   RATE   -1.844331E-08
 AG WELL      4   LAYER   1   ROW     7   COL     5   RATE   -1.844331E-08
 AG WELL      5   LAYER   1   ROW     8   COL     4   RATE   -1.844331E-08
 AG WELL      6   LAYER   1   ROW     8   COL     5   RATE   -1.844331E-08
 
 

   DIVERSION SEGMENTS     PERIOD    5   STEP   7
 SEGMENT      9   RATE    4.426394E-07
 
 

        SW IRRIGATION     PERIOD    5   STEP   7
 SEGMENT      9   ROW     6   COL     4   RATE    5.533103E-08
 SEGMENT      9   ROW     6   COL     5   RATE    5.533103E-08
 SEGMENT      9   ROW     7   COL     4   RATE    5.533103E-08
 SEGMENT      9   ROW     7   COL     5   RATE    5.533103E-08
 SEGMENT      9   ROW     8   COL     4   RATE    5.533103E-08
 SEGMENT      9   ROW     8   COL     5   RATE    5.533103E-08
 
 

        GW IRRIGATION     PERIOD    5   STEP   7
 AG WELL      1   ROW     6   COL     4   RATE    1.844331E-08
 AG WELL      2   ROW     6   COL     5   RATE    1.844331E-08
 AG WELL      3   ROW     7   COL     4   RATE    1.844331E-08
 AG WELL      4   ROW     7   COL     5   RATE    1.844331E-08
 AG WELL      5   ROW     8   COL     4   RATE    1.844331E-08
 AG WELL      6   ROW     8   COL     5   RATE    1.844331E-08
 
1
  VOLUMETRIC BUDGET FOR AGRICULTURAL FIELDS AT  END OF TIME STEP    7, STRESS PERIOD   5
  ------------------------------------------------------------------------------

     CUMULATIVE VOLUMES      L**3       RATES FOR THIS TIME STEP      L**3/T
     ------------------                 ------------------------

           IN:                                      IN:
           ---                                      ---
               AG WELLS  =    52600000.0000                 AG WELLS  =       1.1066E-07
      DIVERSION SEGMENTS =     1454718.5000        DIVERSION SEGMENTS =       4.4264E-07
       IRRIGATION PONDS  =           0.0000         IRRIGATION PONDS  =           0.0000
           GW IRRIGATION =           0.0000             GW IRRIGATION =           0.0000
           SW IRRIGATION =           0.0000             SW IRRIGATION =           0.0000
        SYSTEM LOSSES GW =           0.0000          SYSTEM LOSSES GW =           0.0000
        SYSTEM LOSSES SW =           0.0000          SYSTEM LOSSES SW =           0.0000

                TOTAL IN =    54054720.0000                  TOTAL IN =       5.5330E-07

          OUT:                                     OUT:
          ----                                     ----
               AG WELLS  =           0.0000                 AG WELLS  =           0.0000
      DIVERSION SEGMENTS =           0.0000        DIVERSION SEGMENTS =           0.0000
       IRRIGATION PONDS  =           0.0000         IRRIGATION PONDS  =           0.0000
           GW IRRIGATION =    52600000.0000             GW IRRIGATION =       1.1066E-07
           SW IRRIGATION =     1454747.5000             SW IRRIGATION =       4.4265E-07
        SYSTEM LOSSES GW =           0.0000          SYSTEM LOSSES GW =           0.0000
        SYSTEM LOSSES SW =           0.0000          SYSTEM LOSSES SW =           0.0000

               TOTAL OUT =    54054748.0000                 TOTAL OUT =       5.5331E-07

                IN - OUT =         -28.0000                  IN - OUT =      -8.8107E-12

     PERCENT DISCREPANCY =          -0.00         PERCENT DISCREPANCY =          -0.00



1
  VOLUMETRIC BUDGET FOR ENTIRE MODEL AT END OF TIME STEP    7, STRESS PERIOD   5
  ------------------------------------------------------------------------------

     CUMULATIVE VOLUMES      L**3       RATES FOR THIS TIME STEP      L**3/T
     ------------------                 ------------------------

           IN:                                      IN:
           ---                                      ---
             STORAGE     =    63570908.0000               STORAGE     =          10.6667
       CONSTANT HEAD     =           0.0000         CONSTANT HEAD     =           0.0000
     HEAD DEP BOUNDS     =     2454077.2500       HEAD DEP BOUNDS     =           0.2857
      STREAM LEAKAGE     =   102851360.0000        STREAM LEAKAGE     =          11.3801
        UZF RECHARGE     =       73223.9531          UZF RECHARGE     =           0.0000
               GW ET     =           0.0000                 GW ET     =           0.0000
     SURFACE LEAKAGE     =           0.0000       SURFACE LEAKAGE     =           0.0000
           AG WELLS      =           0.0000             AG WELLS      =           0.0000

                TOTAL IN =   168949568.0000                  TOTAL IN =          22.3326

          OUT:                                     OUT:
          ----                                     ----
             STORAGE     =    23851838.0000               STORAGE     =           9.9510
       CONSTANT HEAD     =           0.0000         CONSTANT HEAD     =           0.0000
     HEAD DEP BOUNDS     =     2496914.7500       HEAD DEP BOUNDS     =           0.2933
      STREAM LEAKAGE     =    89956600.0000        STREAM LEAKAGE     =          12.0659
        UZF RECHARGE     =           0.0000          UZF RECHARGE     =           0.0000
               GW ET     =       48083.0352                 GW ET     =       2.2269E-02
     SURFACE LEAKAGE     =           0.0000       SURFACE LEAKAGE     =           0.0000
           AG WELLS      =    52600000.0000             AG WELLS      =       1.1066E-07

               TOTAL OUT =   168953440.0000                 TOTAL OUT =          22.3326

                IN - OUT =       -3872.0000                  IN - OUT =       3.8147E-06

     PERCENT DISCREPANCY =          -0.00         PERCENT DISCREPANCY =           0.00






         TIME SUMMARY AT END OF TIME STEP    7 IN STRESS PERIOD    5
                    SECONDS     MINUTES      HOURS       DAYS        YEARS
                    -----------------------------------------------------------
   TIME STEP LENGTH  87667.      1461.1      24.352      1.0147     2.77799E-03
 STRESS PERIOD TIME 6.13667E+05  10228.      170.46      7.1026     1.94459E-02
         TOTAL TIME 8.59006E+06 1.43168E+05  2386.1      99.422     0.27220    
1
 
 SOLVING FOR HEAD 
                                                   Max.-Head-Change                         Max.-Flux-Residual
  Residual-Control   Outer-Iter.   Inner-Iter.     Column Row Layer    Maximum-Head-Change  Column Row Layer    Maximum-Flux-Residual          L2-NORM 
          0                 1           2             5    8     1       0.3789787939E-01       5    8    1         0.2079579607E+01      0.4778345559E+01
          0                 2           2             5    6     1      -0.3671892397E-02       5    6    1        -0.2064534911E+00      0.4765956823E+00
          0                 3           2             5    6     1       0.2500424864E-03       5    6    1         0.1445176572E-01      0.3334098399E-01
          0                 4           1             5    6     1      -0.9949405741E-05       5    6    1        -0.5910779578E-03      0.1362430858E-02

    ------------------------------------------------
       NWT REQUIRED            4 OUTER ITERATIONS 
       AND A TOTAL OF          7 INNER ITERATIONS.
    ------------------------------------------------

 OUTPUT CONTROL FOR STRESS PERIOD    5   TIME STEP    8
    PRINT BUDGET
    SAVE BUDGET
 UBDSV1 SAVING "         STORAGE" ON UNIT 102 AT TIME STEP 8, STRESS PERIOD5
 UBDSV2 SAVING "   CONSTANT HEAD" ON UNIT 102 AT TIME STEP 8, STRESS PERIOD 5
 UBDSV1 SAVING "FLOW RIGHT FACE " ON UNIT 102 AT TIME STEP 8, STRESS PERIOD5
 UBDSV1 SAVING "FLOW FRONT FACE " ON UNIT 102 AT TIME STEP 8, STRESS PERIOD5

  HEAD DEP BOUNDS   PERIOD    5   STEP     8
 BOUNDARY      1   LAYER   1   ROW    13   COL     1   RATE   -0.293156    
 BOUNDARY      2   LAYER   1   ROW    14   COL     9   RATE    0.285742    



 STREAM LISTING     PERIOD      5   STEP        8

 LAYER ROW COL. STREAM  RCH.  FLOW INTO     FLOW TO   FLOW OUT OF   OVRLND.     DIRECT     STREAM       STREAM     STREAM     STREAM   STREAMBED  STREAMBED
                SEG.NO.  NO.  STRM. RCH.    AQUIFER    STRM. RCH.    RUNOFF     PRECIP       ET          HEAD       DEPTH      WIDTH   CONDCTNC.   GRADIENT

   1    1    1     1     1    2.1000E+01  2.2592E-01   2.0774E+01  0.000E+00  0.000E+00  0.000E+00  1.09416E+03  1.115E+00  1.220E+01  5.490E-02  1.372E+00
   1    2    2     1     2    2.0774E+01  3.4916E-01   2.0425E+01  0.000E+00  0.000E+00  0.000E+00  1.08917E+03  1.110E+00  1.214E+01  8.495E-02  1.370E+00
   1    3    3     1     3    2.0425E+01  2.9709E-01   2.0128E+01  0.000E+00  0.000E+00  0.000E+00  1.08352E+03  1.105E+00  1.206E+01  7.238E-02  1.368E+00
   1    3    4     1     4    2.0128E+01  2.7299E-01   1.9855E+01  0.000E+00  0.000E+00  0.000E+00  1.07851E+03  1.100E+00  1.200E+01  6.659E-02  1.367E+00
   1    4    5     2     1    1.7855E+01  3.1056E-01   1.7544E+01  0.000E+00  0.000E+00  0.000E+00  1.07292E+03  9.816E-01  1.200E+01  7.800E-02  1.327E+00
   1    5    6     2     2    1.7544E+01  2.3834E-01   1.7306E+01  0.000E+00  0.000E+00  0.000E+00  1.06748E+03  9.724E-01  1.200E+01  6.000E-02  1.324E+00
   1    6    6     2     3    1.7306E+01  2.3787E-01   1.7068E+01  0.000E+00  0.000E+00  0.000E+00  1.06276E+03  9.644E-01  1.200E+01  6.000E-02  1.321E+00
   1    7    6     2     4    1.7068E+01  2.3738E-01   1.6831E+01  0.000E+00  0.000E+00  0.000E+00  1.05803E+03  9.564E-01  1.200E+01  6.000E-02  1.319E+00
   1    8    6     2     5    1.6831E+01  2.3690E-01   1.6594E+01  0.000E+00  0.000E+00  0.000E+00  1.05331E+03  9.483E-01  1.200E+01  6.000E-02  1.316E+00
   1    3    5     3     1    2.0000E+00  2.8252E-01   1.7175E+00  0.000E+00  0.000E+00  0.000E+00  1.07555E+03  1.909E+00  9.636E+00  7.227E-02  1.955E+00
   1    3    6     3     2    1.7175E+00  2.4905E-01   1.4684E+00  0.000E+00  0.000E+00  0.000E+00  1.07264E+03  1.727E+00  8.909E+00  6.682E-02  1.864E+00
   1    3    7     3     3    1.4684E+00  1.9718E-01   1.2712E+00  0.000E+00  0.000E+00  0.000E+00  1.06987E+03  1.555E+00  8.218E+00  5.547E-02  1.777E+00
   1    4    8     3     4    1.2712E+00  2.2567E-01   1.0456E+00  0.000E+00  0.000E+00  0.000E+00  1.06682E+03  1.364E+00  7.455E+00  6.709E-02  1.682E+00
   1    5    8     3     5    1.0456E+00  1.5790E-01   8.8768E-01  0.000E+00  0.000E+00  0.000E+00  1.06362E+03  1.164E+00  6.655E+00  4.991E-02  1.582E+00
   1    6    8     3     6    8.8768E-01  5.5980E-02   8.3170E-01  0.000E+00  0.000E+00  0.000E+00  1.06158E+03  1.036E+00  6.145E+00  1.844E-02  1.518E+00
   1    5   10     4     1    1.0000E+01  9.0919E-02   9.9091E+00  0.000E+00  0.000E+00  0.000E+00  1.07836E+03  6.368E-01  1.000E+01  2.500E-02  1.212E+00
   1    5    9     4     2    9.9091E+00  1.8158E-01   9.7275E+00  0.000E+00  0.000E+00  0.000E+00  1.07154E+03  6.315E-01  1.000E+01  5.000E-02  1.211E+00
   1    6    8     4     3    9.7275E+00  1.2689E-01   9.6006E+00  0.000E+00  0.000E+00  0.000E+00  1.06381E+03  6.256E-01  1.000E+01  3.500E-02  1.209E+00
   1    6    8     5     1    1.0432E+01  2.2686E-01   1.0205E+01  0.000E+00  0.000E+00  0.000E+00  1.05868E+03  6.790E-01  1.542E+01  6.166E-02  1.226E+00
   1    7    7     5     2    1.0205E+01  2.7894E-01   9.9265E+00  0.000E+00  0.000E+00  0.000E+00  1.05417E+03  6.732E-01  1.519E+01  7.594E-02  1.224E+00
   1    8    7     5     3    9.9265E+00  1.9221E-01   9.7343E+00  0.000E+00  0.000E+00  0.000E+00  1.04992E+03  6.676E-01  1.497E+01  5.241E-02  1.223E+00
   1    8    6     5     4    9.7343E+00  1.3577E-01   9.5985E+00  0.000E+00  0.000E+00  0.000E+00  1.04691E+03  6.637E-01  1.482E+01  3.706E-02  1.221E+00
   1    9    6     6     1    2.6192E+01  2.5512E-01   2.5937E+01  0.000E+00  0.000E+00  0.000E+00  1.04398E+03  1.252E+00  1.200E+01  6.000E-02  1.417E+00
   1   10    7     6     2    2.5937E+01  2.5468E-01   2.5683E+01  0.000E+00  0.000E+00  0.000E+00  1.03943E+03  1.245E+00  1.200E+01  6.000E-02  1.415E+00
   1   11    7     6     3    2.5683E+01  2.5424E-01   2.5428E+01  0.000E+00  0.000E+00  0.000E+00  1.03487E+03  1.237E+00  1.200E+01  6.000E-02  1.412E+00
   1   12    7     6     4    2.5428E+01  2.5379E-01   2.5175E+01  0.000E+00  0.000E+00  0.000E+00  1.03032E+03  1.230E+00  1.200E+01  6.000E-02  1.410E+00
   1   13    7     6     5    2.5175E+01  5.0378E-05   2.5175E+01  0.000E+00  0.000E+00  0.000E+00  1.02714E+03  1.226E+00  1.200E+01  2.400E-02  6.997E-04
   1   14    9     7     1    1.5000E+02  1.3356E+00   1.4866E+02  0.000E+00  0.000E+00  0.000E+00  1.03987E+03  2.288E+00  5.529E+01  5.593E-01  7.960E-01
   1   13    8     7     2    1.4866E+02  1.8260E+00   1.4684E+02  0.000E+00  0.000E+00  0.000E+00  1.03478E+03  2.279E+00  5.526E+01  6.148E-01  9.900E-01
   1   13    7     7     3    1.4684E+02  1.4279E+00   1.4541E+02  0.000E+00  0.000E+00  0.000E+00  1.02969E+03  2.271E+00  5.522E+01  5.585E-01  8.523E-01
   1   13    6     8     1    1.7059E+02  8.6032E-01   1.6972E+02  0.000E+00  0.000E+00  0.000E+00  1.02483E+03  2.953E+00  4.282E+01  4.364E-01  6.572E-01
   1   13    5     8     2    1.6972E+02  1.0534E-01   1.6962E+02  0.000E+00  0.000E+00  0.000E+00  1.01858E+03  2.950E+00  4.278E+01  4.359E-01  8.055E-02
   1   13    4     8     3    1.6962E+02 -2.8814E+00   1.7250E+02  0.000E+00  0.000E+00  0.000E+00  1.01233E+03  2.959E+00  4.291E+01  4.372E+00 -2.197E-01
   1   13    3     8     4    1.7250E+02 -3.9932E+00   1.7649E+02  0.000E+00  0.000E+00  0.000E+00  1.00611E+03  2.981E+00  4.323E+01  4.405E+00 -3.022E-01
   1   13    2     8     5    1.7649E+02 -2.9156E+00   1.7941E+02  0.000E+00  0.000E+00  0.000E+00  9.99878E+02  3.003E+00  4.355E+01  4.438E+00 -2.190E-01
   1   13    1     8     6    1.7941E+02 -2.1958E+00   1.8161E+02  0.000E+00  0.000E+00  0.000E+00  9.94894E+02  3.019E+00  4.378E+01  2.677E+00 -2.734E-01
   1    8    6     9     1    4.4264E-07  0.0000E+00   4.4264E-07  0.000E+00  0.000E+00  0.000E+00  1.07875E+03  7.379E-05  4.000E+00  0.000E+00  1.000E+00
   1    8    5     9     2    4.4264E-07  0.0000E+00   4.4264E-07  0.000E+00  0.000E+00  0.000E+00  1.07825E+03  7.379E-05  4.000E+00  0.000E+00  1.000E+00



 UBDSV3 SAVING "           GW ET" ON UNIT  61 AT TIME STEP 8, STRESS PERIOD 5
 UBDSV3 SAVING "    UZF RECHARGE" ON UNIT  61 AT TIME STEP 8, STRESS PERIOD 5
 UBDSV3 SAVING " SURFACE LEAKAGE" ON UNIT  61 AT TIME STEP 8, STRESS PERIOD 5
 UBDSV3 SAVING "       HORT+DUNN" ON UNIT  61 AT TIME STEP 8, STRESS PERIOD 5
 UBDSV3 SAVING "  STORAGE CHANGE" ON UNIT  61 AT TIME STEP 8, STRESS PERIOD 5


UNSATURATED ZONE PACKAGE VOLUMETRIC BUDGET FOR  TIME STEP     8 STRESS PERIOD    5
  ------------------------------------------------------------------------------



     CUMULATIVE VOLUMES      L**3       RATES FOR THIS TIME STEP      L**3/T
     ------------------                 ------------------------

           IN:                                      IN:
           ---                                      ---
        INFILTRATION =    61409126.8173          INFILTRATION =           0.8475

          OUT:                                     OUT:
          ----                                     ----
              UZF ET =     9806320.9246                UZF ET =           4.5675
        UZF RECHARGE =       73224.0000          UZF RECHARGE =       0.0000E+00

            IN - OUT =    51529581.8928              IN - OUT =          -3.7200

          STORAGE:                                 STORAGE:
          --------                                 --------
      STORAGE CHANGE =    51550559.5100        STORAGE CHANGE =          -3.7200

 PERCENT DISCREPANCY IS DIFFERENCE BETWEEN IN-OUT MINUS CHANGE IN STORAGE
 DIVIDED BY THE AVERAGE OF IN AND OUT TIMES 100

 PERCENT DISCREPANCY =          -0.01     PERCENT DISCREPANCY =           0.00






 

            AG WELLS      PERIOD    5   STEP   8
 AG WELL      1   LAYER   1   ROW     6   COL     4   RATE   -1.844331E-08
 AG WELL      2   LAYER   1   ROW     6   COL     5   RATE   -1.844331E-08
 AG WELL      3   LAYER   1   ROW     7   COL     4   RATE   -1.844331E-08
 AG WELL      4   LAYER   1   ROW     7   COL     5   RATE   -1.844331E-08
 AG WELL      5   LAYER   1   ROW     8   COL     4   RATE   -1.844331E-08
 AG WELL      6   LAYER   1   ROW     8   COL     5   RATE   -1.844331E-08
 
 

   DIVERSION SEGMENTS     PERIOD    5   STEP   8
 SEGMENT      9   RATE    4.426394E-07
 
 

        SW IRRIGATION     PERIOD    5   STEP   8
 SEGMENT      9   ROW     6   COL     4   RATE    5.533103E-08
 SEGMENT      9   ROW     6   COL     5   RATE    5.533103E-08
 SEGMENT      9   ROW     7   COL     4   RATE    5.533103E-08
 SEGMENT      9   ROW     7   COL     5   RATE    5.533103E-08
 SEGMENT      9   ROW     8   COL     4   RATE    5.533103E-08
 SEGMENT      9   ROW     8   COL     5   RATE    5.533103E-08
 
 

        GW IRRIGATION     PERIOD    5   STEP   8
 AG WELL      1   ROW     6   COL     4   RATE    1.844331E-08
 AG WELL      2   ROW     6   COL     5   RATE    1.844331E-08
 AG WELL      3   ROW     7   COL     4   RATE    1.844331E-08
 AG WELL      4   ROW     7   COL     5   RATE    1.844331E-08
 AG WELL      5   ROW     8   COL     4   RATE    1.844331E-08
 AG WELL      6   ROW     8   COL     5   RATE    1.844331E-08
 
1
  VOLUMETRIC BUDGET FOR AGRICULTURAL FIELDS AT  END OF TIME STEP    8, STRESS PERIOD   5
  ------------------------------------------------------------------------------

     CUMULATIVE VOLUMES      L**3       RATES FOR THIS TIME STEP      L**3/T
     ------------------                 ------------------------

           IN:                                      IN:
           ---                                      ---
               AG WELLS  =    52600000.0000                 AG WELLS  =       1.1066E-07
      DIVERSION SEGMENTS =     1454718.5000        DIVERSION SEGMENTS =       4.4264E-07
       IRRIGATION PONDS  =           0.0000         IRRIGATION PONDS  =           0.0000
           GW IRRIGATION =           0.0000             GW IRRIGATION =           0.0000
           SW IRRIGATION =           0.0000             SW IRRIGATION =           0.0000
        SYSTEM LOSSES GW =           0.0000          SYSTEM LOSSES GW =           0.0000
        SYSTEM LOSSES SW =           0.0000          SYSTEM LOSSES SW =           0.0000

                TOTAL IN =    54054720.0000                  TOTAL IN =       5.5330E-07

          OUT:                                     OUT:
          ----                                     ----
               AG WELLS  =           0.0000                 AG WELLS  =           0.0000
      DIVERSION SEGMENTS =           0.0000        DIVERSION SEGMENTS =           0.0000
       IRRIGATION PONDS  =           0.0000         IRRIGATION PONDS  =           0.0000
           GW IRRIGATION =    52600000.0000             GW IRRIGATION =       1.1066E-07
           SW IRRIGATION =     1454747.5000             SW IRRIGATION =       4.4265E-07
        SYSTEM LOSSES GW =           0.0000          SYSTEM LOSSES GW =           0.0000
        SYSTEM LOSSES SW =           0.0000          SYSTEM LOSSES SW =           0.0000

               TOTAL OUT =    54054748.0000                 TOTAL OUT =       5.5331E-07

                IN - OUT =         -28.0000                  IN - OUT =      -8.8107E-12

     PERCENT DISCREPANCY =          -0.00         PERCENT DISCREPANCY =          -0.00



1
  VOLUMETRIC BUDGET FOR ENTIRE MODEL AT END OF TIME STEP    8, STRESS PERIOD   5
  ------------------------------------------------------------------------------

     CUMULATIVE VOLUMES      L**3       RATES FOR THIS TIME STEP      L**3/T
     ------------------                 ------------------------

           IN:                                      IN:
           ---                                      ---
             STORAGE     =    64469604.0000               STORAGE     =          10.2513
       CONSTANT HEAD     =           0.0000         CONSTANT HEAD     =           0.0000
     HEAD DEP BOUNDS     =     2479127.2500       HEAD DEP BOUNDS     =           0.2857
      STREAM LEAKAGE     =   103849064.0000        STREAM LEAKAGE     =          11.3806
        UZF RECHARGE     =       73223.9531          UZF RECHARGE     =           0.0000
               GW ET     =           0.0000                 GW ET     =           0.0000
     SURFACE LEAKAGE     =           0.0000       SURFACE LEAKAGE     =           0.0000
           AG WELLS      =           0.0000             AG WELLS      =           0.0000

                TOTAL IN =   170871008.0000                  TOTAL IN =          21.9177

          OUT:                                     OUT:
          ----                                     ----
             STORAGE     =    24695428.0000               STORAGE     =           9.6227
       CONSTANT HEAD     =           0.0000         CONSTANT HEAD     =           0.0000
     HEAD DEP BOUNDS     =     2522614.7500       HEAD DEP BOUNDS     =           0.2932
      STREAM LEAKAGE     =    91007376.0000        STREAM LEAKAGE     =          11.9860
        UZF RECHARGE     =           0.0000          UZF RECHARGE     =           0.0000
               GW ET     =       49469.3750                 GW ET     =       1.5814E-02
     SURFACE LEAKAGE     =           0.0000       SURFACE LEAKAGE     =           0.0000
           AG WELLS      =    52600000.0000             AG WELLS      =       1.1066E-07

               TOTAL OUT =   170874880.0000                 TOTAL OUT =          21.9177

                IN - OUT =       -3872.0000                  IN - OUT =       1.9073E-06

     PERCENT DISCREPANCY =          -0.00         PERCENT DISCREPANCY =           0.00






         TIME SUMMARY AT END OF TIME STEP    8 IN STRESS PERIOD    5
                    SECONDS     MINUTES      HOURS       DAYS        YEARS
                    -----------------------------------------------------------
   TIME STEP LENGTH  87667.      1461.1      24.352      1.0147     2.77799E-03
 STRESS PERIOD TIME 7.01333E+05  11689.      194.81      8.1173     2.22239E-02
         TOTAL TIME 8.67773E+06 1.44629E+05  2410.5      100.44     0.27498    
1
 
 SOLVING FOR HEAD 
                                                   Max.-Head-Change                         Max.-Flux-Residual
  Residual-Control   Outer-Iter.   Inner-Iter.     Column Row Layer    Maximum-Head-Change  Column Row Layer    Maximum-Flux-Residual          L2-NORM 
          0                 1           2             5    8     1       0.3599426029E-01       5    8    1         0.1970662185E+01      0.4570152959E+01
          0                 2           2             5    8     1      -0.3501312539E-02       5    8    1        -0.1970698950E+00      0.4568146952E+00
          0                 3           2             5    8     1       0.2384258901E-03       5    8    1         0.1379486382E-01      0.3195861724E-01
          0                 4           1             5    8     1      -0.9487191796E-05       5    8    1        -0.5642108722E-03      0.1305968188E-02

    ------------------------------------------------
       NWT REQUIRED            4 OUTER ITERATIONS 
       AND A TOTAL OF          7 INNER ITERATIONS.
    ------------------------------------------------

 OUTPUT CONTROL FOR STRESS PERIOD    5   TIME STEP    9
    PRINT BUDGET
    SAVE BUDGET
 UBDSV1 SAVING "         STORAGE" ON UNIT 102 AT TIME STEP 9, STRESS PERIOD5
 UBDSV2 SAVING "   CONSTANT HEAD" ON UNIT 102 AT TIME STEP 9, STRESS PERIOD 5
 UBDSV1 SAVING "FLOW RIGHT FACE " ON UNIT 102 AT TIME STEP 9, STRESS PERIOD5
 UBDSV1 SAVING "FLOW FRONT FACE " ON UNIT 102 AT TIME STEP 9, STRESS PERIOD5

  HEAD DEP BOUNDS   PERIOD    5   STEP     9
 BOUNDARY      1   LAYER   1   ROW    13   COL     1   RATE   -0.293009    
 BOUNDARY      2   LAYER   1   ROW    14   COL     9   RATE    0.285742    



 STREAM LISTING     PERIOD      5   STEP        9

 LAYER ROW COL. STREAM  RCH.  FLOW INTO     FLOW TO   FLOW OUT OF   OVRLND.     DIRECT     STREAM       STREAM     STREAM     STREAM   STREAMBED  STREAMBED
                SEG.NO.  NO.  STRM. RCH.    AQUIFER    STRM. RCH.    RUNOFF     PRECIP       ET          HEAD       DEPTH      WIDTH   CONDCTNC.   GRADIENT

   1    1    1     1     1    2.1000E+01  2.2592E-01   2.0774E+01  0.000E+00  0.000E+00  0.000E+00  1.09416E+03  1.115E+00  1.220E+01  5.490E-02  1.372E+00
   1    2    2     1     2    2.0774E+01  3.4916E-01   2.0425E+01  0.000E+00  0.000E+00  0.000E+00  1.08917E+03  1.110E+00  1.214E+01  8.495E-02  1.370E+00
   1    3    3     1     3    2.0425E+01  2.9709E-01   2.0128E+01  0.000E+00  0.000E+00  0.000E+00  1.08352E+03  1.105E+00  1.206E+01  7.238E-02  1.368E+00
   1    3    4     1     4    2.0128E+01  2.7299E-01   1.9855E+01  0.000E+00  0.000E+00  0.000E+00  1.07851E+03  1.100E+00  1.200E+01  6.659E-02  1.367E+00
   1    4    5     2     1    1.7855E+01  3.1056E-01   1.7544E+01  0.000E+00  0.000E+00  0.000E+00  1.07292E+03  9.816E-01  1.200E+01  7.800E-02  1.327E+00
   1    5    6     2     2    1.7544E+01  2.3834E-01   1.7306E+01  0.000E+00  0.000E+00  0.000E+00  1.06748E+03  9.724E-01  1.200E+01  6.000E-02  1.324E+00
   1    6    6     2     3    1.7306E+01  2.3787E-01   1.7068E+01  0.000E+00  0.000E+00  0.000E+00  1.06276E+03  9.644E-01  1.200E+01  6.000E-02  1.321E+00
   1    7    6     2     4    1.7068E+01  2.3738E-01   1.6831E+01  0.000E+00  0.000E+00  0.000E+00  1.05803E+03  9.564E-01  1.200E+01  6.000E-02  1.319E+00
   1    8    6     2     5    1.6831E+01  2.3690E-01   1.6594E+01  0.000E+00  0.000E+00  0.000E+00  1.05331E+03  9.483E-01  1.200E+01  6.000E-02  1.316E+00
   1    3    5     3     1    2.0000E+00  2.8252E-01   1.7175E+00  0.000E+00  0.000E+00  0.000E+00  1.07555E+03  1.909E+00  9.636E+00  7.227E-02  1.955E+00
   1    3    6     3     2    1.7175E+00  2.4905E-01   1.4684E+00  0.000E+00  0.000E+00  0.000E+00  1.07264E+03  1.727E+00  8.909E+00  6.682E-02  1.864E+00
   1    3    7     3     3    1.4684E+00  1.9718E-01   1.2712E+00  0.000E+00  0.000E+00  0.000E+00  1.06987E+03  1.555E+00  8.218E+00  5.547E-02  1.777E+00
   1    4    8     3     4    1.2712E+00  2.2567E-01   1.0456E+00  0.000E+00  0.000E+00  0.000E+00  1.06682E+03  1.364E+00  7.455E+00  6.709E-02  1.682E+00
   1    5    8     3     5    1.0456E+00  1.5790E-01   8.8768E-01  0.000E+00  0.000E+00  0.000E+00  1.06362E+03  1.164E+00  6.655E+00  4.991E-02  1.582E+00
   1    6    8     3     6    8.8768E-01  5.5980E-02   8.3170E-01  0.000E+00  0.000E+00  0.000E+00  1.06158E+03  1.036E+00  6.145E+00  1.844E-02  1.518E+00
   1    5   10     4     1    1.0000E+01  9.0919E-02   9.9091E+00  0.000E+00  0.000E+00  0.000E+00  1.07836E+03  6.368E-01  1.000E+01  2.500E-02  1.212E+00
   1    5    9     4     2    9.9091E+00  1.8158E-01   9.7275E+00  0.000E+00  0.000E+00  0.000E+00  1.07154E+03  6.315E-01  1.000E+01  5.000E-02  1.211E+00
   1    6    8     4     3    9.7275E+00  1.2689E-01   9.6006E+00  0.000E+00  0.000E+00  0.000E+00  1.06381E+03  6.256E-01  1.000E+01  3.500E-02  1.209E+00
   1    6    8     5     1    1.0432E+01  2.2686E-01   1.0205E+01  0.000E+00  0.000E+00  0.000E+00  1.05868E+03  6.790E-01  1.542E+01  6.166E-02  1.226E+00
   1    7    7     5     2    1.0205E+01  2.7894E-01   9.9265E+00  0.000E+00  0.000E+00  0.000E+00  1.05417E+03  6.732E-01  1.519E+01  7.594E-02  1.224E+00
   1    8    7     5     3    9.9265E+00  1.9221E-01   9.7343E+00  0.000E+00  0.000E+00  0.000E+00  1.04992E+03  6.676E-01  1.497E+01  5.241E-02  1.223E+00
   1    8    6     5     4    9.7343E+00  1.3577E-01   9.5985E+00  0.000E+00  0.000E+00  0.000E+00  1.04691E+03  6.637E-01  1.482E+01  3.706E-02  1.221E+00
   1    9    6     6     1    2.6192E+01  2.5512E-01   2.5937E+01  0.000E+00  0.000E+00  0.000E+00  1.04398E+03  1.252E+00  1.200E+01  6.000E-02  1.417E+00
   1   10    7     6     2    2.5937E+01  2.5468E-01   2.5683E+01  0.000E+00  0.000E+00  0.000E+00  1.03943E+03  1.245E+00  1.200E+01  6.000E-02  1.415E+00
   1   11    7     6     3    2.5683E+01  2.5424E-01   2.5428E+01  0.000E+00  0.000E+00  0.000E+00  1.03487E+03  1.237E+00  1.200E+01  6.000E-02  1.412E+00
   1   12    7     6     4    2.5428E+01  2.5379E-01   2.5175E+01  0.000E+00  0.000E+00  0.000E+00  1.03032E+03  1.230E+00  1.200E+01  6.000E-02  1.410E+00
   1   13    7     6     5    2.5175E+01  4.2837E-05   2.5175E+01  0.000E+00  0.000E+00  0.000E+00  1.02714E+03  1.226E+00  1.200E+01  2.400E-02  5.950E-04
   1   14    9     7     1    1.5000E+02  1.3356E+00   1.4866E+02  0.000E+00  0.000E+00  0.000E+00  1.03987E+03  2.288E+00  5.529E+01  5.593E-01  7.960E-01
   1   13    8     7     2    1.4866E+02  1.8259E+00   1.4684E+02  0.000E+00  0.000E+00  0.000E+00  1.03478E+03  2.279E+00  5.526E+01  6.148E-01  9.900E-01
   1   13    7     7     3    1.4684E+02  1.4277E+00   1.4541E+02  0.000E+00  0.000E+00  0.000E+00  1.02969E+03  2.271E+00  5.522E+01  5.585E-01  8.522E-01
   1   13    6     8     1    1.7059E+02  8.6072E-01   1.6972E+02  0.000E+00  0.000E+00  0.000E+00  1.02483E+03  2.953E+00  4.282E+01  4.364E-01  6.575E-01
   1   13    5     8     2    1.6972E+02  1.0577E-01   1.6962E+02  0.000E+00  0.000E+00  0.000E+00  1.01858E+03  2.950E+00  4.278E+01  4.359E-01  8.088E-02
   1   13    4     8     3    1.6962E+02 -2.8612E+00   1.7248E+02  0.000E+00  0.000E+00  0.000E+00  1.01233E+03  2.959E+00  4.291E+01  4.372E+00 -2.181E-01
   1   13    3     8     4    1.7248E+02 -3.9731E+00   1.7645E+02  0.000E+00  0.000E+00  0.000E+00  1.00611E+03  2.981E+00  4.323E+01  4.405E+00 -3.007E-01
   1   13    2     8     5    1.7645E+02 -2.8920E+00   1.7935E+02  0.000E+00  0.000E+00  0.000E+00  9.99878E+02  3.003E+00  4.354E+01  4.437E+00 -2.173E-01
   1   13    1     8     6    1.7935E+02 -2.1863E+00   1.8153E+02  0.000E+00  0.000E+00  0.000E+00  9.94894E+02  3.019E+00  4.377E+01  2.676E+00 -2.723E-01
   1    8    6     9     1    0.0000E+00  0.0000E+00   0.0000E+00  0.000E+00  0.000E+00  0.000E+00  1.07875E+03  0.000E+00  4.000E+00  0.000E+00  1.000E+00
   1    8    5     9     2    0.0000E+00  0.0000E+00   0.0000E+00  0.000E+00  0.000E+00  0.000E+00  1.07825E+03  0.000E+00  4.000E+00  0.000E+00  1.000E+00



 UBDSV3 SAVING "           GW ET" ON UNIT  61 AT TIME STEP 9, STRESS PERIOD 5
 UBDSV3 SAVING "    UZF RECHARGE" ON UNIT  61 AT TIME STEP 9, STRESS PERIOD 5
 UBDSV3 SAVING " SURFACE LEAKAGE" ON UNIT  61 AT TIME STEP 9, STRESS PERIOD 5
 UBDSV3 SAVING "       HORT+DUNN" ON UNIT  61 AT TIME STEP 9, STRESS PERIOD 5
 UBDSV3 SAVING "  STORAGE CHANGE" ON UNIT  61 AT TIME STEP 9, STRESS PERIOD 5


UNSATURATED ZONE PACKAGE VOLUMETRIC BUDGET FOR  TIME STEP     9 STRESS PERIOD    5
  ------------------------------------------------------------------------------



     CUMULATIVE VOLUMES      L**3       RATES FOR THIS TIME STEP      L**3/T
     ------------------                 ------------------------

           IN:                                      IN:
           ---                                      ---
        INFILTRATION =    61483424.3131          INFILTRATION =           0.8475

          OUT:                                     OUT:
          ----                                     ----
              UZF ET =    10206855.7329                UZF ET =           4.5688
        UZF RECHARGE =       73224.0000          UZF RECHARGE =       0.0000E+00

            IN - OUT =    51203344.5801              IN - OUT =          -3.7213

          STORAGE:                                 STORAGE:
          --------                                 --------
      STORAGE CHANGE =    51224322.1887        STORAGE CHANGE =          -3.7213

 PERCENT DISCREPANCY IS DIFFERENCE BETWEEN IN-OUT MINUS CHANGE IN STORAGE
 DIVIDED BY THE AVERAGE OF IN AND OUT TIMES 100

 PERCENT DISCREPANCY =          -0.01     PERCENT DISCREPANCY =           0.00






 

            AG WELLS      PERIOD    5   STEP   9
 AG WELL      1   LAYER   1   ROW     6   COL     4   RATE     0.00000    
 AG WELL      2   LAYER   1   ROW     6   COL     5   RATE     0.00000    
 AG WELL      3   LAYER   1   ROW     7   COL     4   RATE     0.00000    
 AG WELL      4   LAYER   1   ROW     7   COL     5   RATE     0.00000    
 AG WELL      5   LAYER   1   ROW     8   COL     4   RATE     0.00000    
 AG WELL      6   LAYER   1   ROW     8   COL     5   RATE     0.00000    
 
 

   DIVERSION SEGMENTS     PERIOD    5   STEP   9
 SEGMENT      9   RATE     0.00000    
 
 

        SW IRRIGATION     PERIOD    5   STEP   9
 SEGMENT      9   ROW     6   COL     4   RATE     0.00000    
 SEGMENT      9   ROW     6   COL     5   RATE     0.00000    
 SEGMENT      9   ROW     7   COL     4   RATE     0.00000    
 SEGMENT      9   ROW     7   COL     5   RATE     0.00000    
 SEGMENT      9   ROW     8   COL     4   RATE     0.00000    
 SEGMENT      9   ROW     8   COL     5   RATE     0.00000    
 
 

        GW IRRIGATION     PERIOD    5   STEP   9
 AG WELL      1   ROW     6   COL     4   RATE     0.00000    
 AG WELL      2   ROW     6   COL     5   RATE     0.00000    
 AG WELL      3   ROW     7   COL     4   RATE     0.00000    
 AG WELL      4   ROW     7   COL     5   RATE     0.00000    
 AG WELL      5   ROW     8   COL     4   RATE     0.00000    
 AG WELL      6   ROW     8   COL     5   RATE     0.00000    
 
1
  VOLUMETRIC BUDGET FOR AGRICULTURAL FIELDS AT  END OF TIME STEP    9, STRESS PERIOD   5
  ------------------------------------------------------------------------------

     CUMULATIVE VOLUMES      L**3       RATES FOR THIS TIME STEP      L**3/T
     ------------------                 ------------------------

           IN:                                      IN:
           ---                                      ---
               AG WELLS  =    52600000.0000                 AG WELLS  =           0.0000
      DIVERSION SEGMENTS =     1454718.5000        DIVERSION SEGMENTS =           0.0000
       IRRIGATION PONDS  =           0.0000         IRRIGATION PONDS  =           0.0000
           GW IRRIGATION =           0.0000             GW IRRIGATION =           0.0000
           SW IRRIGATION =           0.0000             SW IRRIGATION =           0.0000
        SYSTEM LOSSES GW =           0.0000          SYSTEM LOSSES GW =           0.0000
        SYSTEM LOSSES SW =           0.0000          SYSTEM LOSSES SW =           0.0000

                TOTAL IN =    54054720.0000                  TOTAL IN =           0.0000

          OUT:                                     OUT:
          ----                                     ----
               AG WELLS  =           0.0000                 AG WELLS  =           0.0000
      DIVERSION SEGMENTS =           0.0000        DIVERSION SEGMENTS =           0.0000
       IRRIGATION PONDS  =           0.0000         IRRIGATION PONDS  =           0.0000
           GW IRRIGATION =    52600000.0000             GW IRRIGATION =           0.0000
           SW IRRIGATION =     1454747.5000             SW IRRIGATION =           0.0000
        SYSTEM LOSSES GW =           0.0000          SYSTEM LOSSES GW =           0.0000
        SYSTEM LOSSES SW =           0.0000          SYSTEM LOSSES SW =           0.0000

               TOTAL OUT =    54054748.0000                 TOTAL OUT =           0.0000

                IN - OUT =         -28.0000                  IN - OUT =           0.0000

     PERCENT DISCREPANCY =          -0.00         PERCENT DISCREPANCY =           0.00



1
  VOLUMETRIC BUDGET FOR ENTIRE MODEL AT END OF TIME STEP    9, STRESS PERIOD   5
  ------------------------------------------------------------------------------

     CUMULATIVE VOLUMES      L**3       RATES FOR THIS TIME STEP      L**3/T
     ------------------                 ------------------------

           IN:                                      IN:
           ---                                      ---
             STORAGE     =    65334112.0000               STORAGE     =           9.8613
       CONSTANT HEAD     =           0.0000         CONSTANT HEAD     =           0.0000
     HEAD DEP BOUNDS     =     2504177.2500       HEAD DEP BOUNDS     =           0.2857
      STREAM LEAKAGE     =   104846816.0000        STREAM LEAKAGE     =          11.3812
        UZF RECHARGE     =       73223.9531          UZF RECHARGE     =           0.0000
               GW ET     =           0.0000                 GW ET     =           0.0000
     SURFACE LEAKAGE     =           0.0000       SURFACE LEAKAGE     =           0.0000
           AG WELLS      =           0.0000             AG WELLS      =           0.0000

                TOTAL IN =   172758320.0000                  TOTAL IN =          21.5282

          OUT:                                     OUT:
          ----                                     ----
             STORAGE     =    25511840.0000               STORAGE     =           9.3127
       CONSTANT HEAD     =           0.0000         CONSTANT HEAD     =           0.0000
     HEAD DEP BOUNDS     =     2548302.0000       HEAD DEP BOUNDS     =           0.2930
      STREAM LEAKAGE     =    92051704.0000        STREAM LEAKAGE     =          11.9125
        UZF RECHARGE     =           0.0000          UZF RECHARGE     =           0.0000
               GW ET     =       50344.9531                 GW ET     =       9.9876E-03
     SURFACE LEAKAGE     =           0.0000       SURFACE LEAKAGE     =           0.0000
           AG WELLS      =    52600000.0000             AG WELLS      =           0.0000

               TOTAL OUT =   172762192.0000                 TOTAL OUT =          21.5282

                IN - OUT =       -3872.0000                  IN - OUT =       3.8147E-06

     PERCENT DISCREPANCY =          -0.00         PERCENT DISCREPANCY =           0.00






         TIME SUMMARY AT END OF TIME STEP    9 IN STRESS PERIOD    5
                    SECONDS     MINUTES      HOURS       DAYS        YEARS
                    -----------------------------------------------------------
   TIME STEP LENGTH  87667.      1461.1      24.352      1.0147     2.77799E-03
 STRESS PERIOD TIME 7.89000E+05  13150.      219.17      9.1319     2.50019E-02
         TOTAL TIME 8.76540E+06 1.46090E+05  2434.8      101.45     0.27776    
1
 
 SOLVING FOR HEAD 
                                                   Max.-Head-Change                         Max.-Flux-Residual
  Residual-Control   Outer-Iter.   Inner-Iter.     Column Row Layer    Maximum-Head-Change  Column Row Layer    Maximum-Flux-Residual          L2-NORM 
          0                 1           2             5    8     1       0.3419379996E-01       5    8    1         0.1870508151E+01      0.4376446769E+01
          0                 2           2             4    7     1      -0.1864458228E+01       5    8    1        -0.1001870541E+03      0.2452995949E+03
          0                 3           2             4    7     1       0.1269437425E+00       5    8    1         0.7110711476E+01      0.1721424062E+02
          0                 4           2             4    7     1      -0.5051303708E-02       5    8    1        -0.2907497081E+00      0.7051974319E+00
          0                 5           1             4    7     1       0.6228461070E-04       5    8    1         0.3678977643E-02      0.9434332218E-02

    ------------------------------------------------
       NWT REQUIRED            5 OUTER ITERATIONS 
       AND A TOTAL OF          9 INNER ITERATIONS.
    ------------------------------------------------

 OUTPUT CONTROL FOR STRESS PERIOD    5   TIME STEP   10
    PRINT BUDGET
    SAVE BUDGET
 UBDSV1 SAVING "         STORAGE" ON UNIT 102 AT TIME STEP 10, STRESS PERIOD5
 UBDSV2 SAVING "   CONSTANT HEAD" ON UNIT 102 AT TIME STEP 10, STRESS PERIOD 5
 UBDSV1 SAVING "FLOW RIGHT FACE " ON UNIT 102 AT TIME STEP 10, STRESS PERIOD5
 UBDSV1 SAVING "FLOW FRONT FACE " ON UNIT 102 AT TIME STEP 10, STRESS PERIOD5

  HEAD DEP BOUNDS   PERIOD    5   STEP    10
 BOUNDARY      1   LAYER   1   ROW    13   COL     1   RATE   -0.292751    
 BOUNDARY      2   LAYER   1   ROW    14   COL     9   RATE    0.285743    



 STREAM LISTING     PERIOD      5   STEP       10

 LAYER ROW COL. STREAM  RCH.  FLOW INTO     FLOW TO   FLOW OUT OF   OVRLND.     DIRECT     STREAM       STREAM     STREAM     STREAM   STREAMBED  STREAMBED
                SEG.NO.  NO.  STRM. RCH.    AQUIFER    STRM. RCH.    RUNOFF     PRECIP       ET          HEAD       DEPTH      WIDTH   CONDCTNC.   GRADIENT

   1    1    1     1     1    2.1000E+01  2.2592E-01   2.0774E+01  0.000E+00  0.000E+00  0.000E+00  1.09416E+03  1.115E+00  1.220E+01  5.490E-02  1.372E+00
   1    2    2     1     2    2.0774E+01  3.4916E-01   2.0425E+01  0.000E+00  0.000E+00  0.000E+00  1.08917E+03  1.110E+00  1.214E+01  8.495E-02  1.370E+00
   1    3    3     1     3    2.0425E+01  2.9709E-01   2.0128E+01  0.000E+00  0.000E+00  0.000E+00  1.08352E+03  1.105E+00  1.206E+01  7.238E-02  1.368E+00
   1    3    4     1     4    2.0128E+01  2.7299E-01   1.9855E+01  0.000E+00  0.000E+00  0.000E+00  1.07851E+03  1.100E+00  1.200E+01  6.659E-02  1.367E+00
   1    4    5     2     1    1.7855E+01  3.1056E-01   1.7544E+01  0.000E+00  0.000E+00  0.000E+00  1.07292E+03  9.816E-01  1.200E+01  7.800E-02  1.327E+00
   1    5    6     2     2    1.7544E+01  2.3834E-01   1.7306E+01  0.000E+00  0.000E+00  0.000E+00  1.06748E+03  9.724E-01  1.200E+01  6.000E-02  1.324E+00
   1    6    6     2     3    1.7306E+01  2.3787E-01   1.7068E+01  0.000E+00  0.000E+00  0.000E+00  1.06276E+03  9.644E-01  1.200E+01  6.000E-02  1.321E+00
   1    7    6     2     4    1.7068E+01  2.3738E-01   1.6831E+01  0.000E+00  0.000E+00  0.000E+00  1.05803E+03  9.564E-01  1.200E+01  6.000E-02  1.319E+00
   1    8    6     2     5    1.6831E+01  2.3690E-01   1.6594E+01  0.000E+00  0.000E+00  0.000E+00  1.05331E+03  9.483E-01  1.200E+01  6.000E-02  1.316E+00
   1    3    5     3     1    2.0000E+00  2.8252E-01   1.7175E+00  0.000E+00  0.000E+00  0.000E+00  1.07555E+03  1.909E+00  9.636E+00  7.227E-02  1.955E+00
   1    3    6     3     2    1.7175E+00  2.4905E-01   1.4684E+00  0.000E+00  0.000E+00  0.000E+00  1.07264E+03  1.727E+00  8.909E+00  6.682E-02  1.864E+00
   1    3    7     3     3    1.4684E+00  1.9718E-01   1.2712E+00  0.000E+00  0.000E+00  0.000E+00  1.06987E+03  1.555E+00  8.218E+00  5.547E-02  1.777E+00
   1    4    8     3     4    1.2712E+00  2.2567E-01   1.0456E+00  0.000E+00  0.000E+00  0.000E+00  1.06682E+03  1.364E+00  7.455E+00  6.709E-02  1.682E+00
   1    5    8     3     5    1.0456E+00  1.5790E-01   8.8768E-01  0.000E+00  0.000E+00  0.000E+00  1.06362E+03  1.164E+00  6.655E+00  4.991E-02  1.582E+00
   1    6    8     3     6    8.8768E-01  5.5980E-02   8.3170E-01  0.000E+00  0.000E+00  0.000E+00  1.06158E+03  1.036E+00  6.145E+00  1.844E-02  1.518E+00
   1    5   10     4     1    1.0000E+01  9.0919E-02   9.9091E+00  0.000E+00  0.000E+00  0.000E+00  1.07836E+03  6.368E-01  1.000E+01  2.500E-02  1.212E+00
   1    5    9     4     2    9.9091E+00  1.8158E-01   9.7275E+00  0.000E+00  0.000E+00  0.000E+00  1.07154E+03  6.315E-01  1.000E+01  5.000E-02  1.211E+00
   1    6    8     4     3    9.7275E+00  1.2689E-01   9.6006E+00  0.000E+00  0.000E+00  0.000E+00  1.06381E+03  6.256E-01  1.000E+01  3.500E-02  1.209E+00
   1    6    8     5     1    1.0432E+01  2.2686E-01   1.0205E+01  0.000E+00  0.000E+00  0.000E+00  1.05868E+03  6.790E-01  1.542E+01  6.166E-02  1.226E+00
   1    7    7     5     2    1.0205E+01  2.7894E-01   9.9265E+00  0.000E+00  0.000E+00  0.000E+00  1.05417E+03  6.732E-01  1.519E+01  7.594E-02  1.224E+00
   1    8    7     5     3    9.9265E+00  1.9221E-01   9.7343E+00  0.000E+00  0.000E+00  0.000E+00  1.04992E+03  6.676E-01  1.497E+01  5.241E-02  1.223E+00
   1    8    6     5     4    9.7343E+00  1.3577E-01   9.5985E+00  0.000E+00  0.000E+00  0.000E+00  1.04691E+03  6.637E-01  1.482E+01  3.706E-02  1.221E+00
   1    9    6     6     1    9.5985E+00  2.2097E-01   9.3776E+00  0.000E+00  0.000E+00  0.000E+00  1.04341E+03  6.828E-01  1.200E+01  6.000E-02  1.228E+00
   1   10    7     6     2    9.3776E+00  2.2039E-01   9.1572E+00  0.000E+00  0.000E+00  0.000E+00  1.03885E+03  6.732E-01  1.200E+01  6.000E-02  1.224E+00
   1   11    7     6     3    9.1572E+00  2.1981E-01   8.9374E+00  0.000E+00  0.000E+00  0.000E+00  1.03430E+03  6.636E-01  1.200E+01  6.000E-02  1.221E+00
   1   12    7     6     4    8.9374E+00  2.1923E-01   8.7181E+00  0.000E+00  0.000E+00  0.000E+00  1.02974E+03  6.539E-01  1.200E+01  6.000E-02  1.218E+00
   1   13    7     6     5    8.7181E+00 -1.3688E-01   8.8550E+00  0.000E+00  0.000E+00  0.000E+00  1.02656E+03  6.520E-01  1.200E+01  2.400E-01 -1.901E-01
   1   14    9     7     1    1.5000E+02  1.3356E+00   1.4866E+02  0.000E+00  0.000E+00  0.000E+00  1.03987E+03  2.288E+00  5.529E+01  5.593E-01  7.960E-01
   1   13    8     7     2    1.4866E+02  1.8258E+00   1.4684E+02  0.000E+00  0.000E+00  0.000E+00  1.03478E+03  2.279E+00  5.526E+01  6.148E-01  9.899E-01
   1   13    7     7     3    1.4684E+02  1.4288E+00   1.4541E+02  0.000E+00  0.000E+00  0.000E+00  1.02969E+03  2.271E+00  5.522E+01  5.585E-01  8.528E-01
   1   13    6     8     1    1.5426E+02  7.8385E-01   1.5348E+02  0.000E+00  0.000E+00  0.000E+00  1.02472E+03  2.844E+00  4.124E+01  4.202E-01  6.218E-01
   1   13    5     8     2    1.5348E+02  5.6861E-02   1.5342E+02  0.000E+00  0.000E+00  0.000E+00  1.01847E+03  2.841E+00  4.119E+01  4.198E-01  4.515E-02
   1   13    4     8     3    1.5342E+02 -3.1682E+00   1.5659E+02  0.000E+00  0.000E+00  0.000E+00  1.01223E+03  2.852E+00  4.135E+01  4.214E+00 -2.506E-01
   1   13    3     8     4    1.5659E+02 -4.2379E+00   1.6083E+02  0.000E+00  0.000E+00  0.000E+00  1.00600E+03  2.877E+00  4.172E+01  4.251E+00 -3.323E-01
   1   13    2     8     5    1.6083E+02 -3.1816E+00   1.6401E+02  0.000E+00  0.000E+00  0.000E+00  9.99777E+02  2.902E+00  4.208E+01  4.288E+00 -2.473E-01
   1   13    1     8     6    1.6401E+02 -2.3521E+00   1.6636E+02  0.000E+00  0.000E+00  0.000E+00  9.94796E+02  2.921E+00  4.235E+01  2.589E+00 -3.028E-01
   1    8    6     9     1    1.6594E+01  0.0000E+00   1.6594E+01  0.000E+00  0.000E+00  0.000E+00  1.08182E+03  3.071E+00  4.000E+00  0.000E+00  2.024E+00
   1    8    5     9     2    1.6594E+01  0.0000E+00   1.6594E+01  0.000E+00  0.000E+00  0.000E+00  1.08132E+03  3.071E+00  4.000E+00  0.000E+00  2.024E+00



 UBDSV3 SAVING "           GW ET" ON UNIT  61 AT TIME STEP 10, STRESS PERIOD 5
 UBDSV3 SAVING "    UZF RECHARGE" ON UNIT  61 AT TIME STEP 10, STRESS PERIOD 5
 UBDSV3 SAVING " SURFACE LEAKAGE" ON UNIT  61 AT TIME STEP 10, STRESS PERIOD 5
 UBDSV3 SAVING "       HORT+DUNN" ON UNIT  61 AT TIME STEP 10, STRESS PERIOD 5
 UBDSV3 SAVING "  STORAGE CHANGE" ON UNIT  61 AT TIME STEP 10, STRESS PERIOD 5


UNSATURATED ZONE PACKAGE VOLUMETRIC BUDGET FOR  TIME STEP    10 STRESS PERIOD    5
  ------------------------------------------------------------------------------



     CUMULATIVE VOLUMES      L**3       RATES FOR THIS TIME STEP      L**3/T
     ------------------                 ------------------------

           IN:                                      IN:
           ---                                      ---
        INFILTRATION =   115612475.8090          INFILTRATION =         617.4417

          OUT:                                     OUT:
          ----                                     ----
              UZF ET =    10607273.2132                UZF ET =           4.5675
        UZF RECHARGE =       73224.0000          UZF RECHARGE =       0.0000E+00

            IN - OUT =   104931978.5958              IN - OUT =         612.8742

          STORAGE:                                 STORAGE:
          --------                                 --------
      STORAGE CHANGE =   104952956.5669        STORAGE CHANGE =         612.8742

 PERCENT DISCREPANCY IS DIFFERENCE BETWEEN IN-OUT MINUS CHANGE IN STORAGE
 DIVIDED BY THE AVERAGE OF IN AND OUT TIMES 100

 PERCENT DISCREPANCY =          -0.00     PERCENT DISCREPANCY =           0.00






 

            AG WELLS      PERIOD    5   STEP  10
 AG WELL      1   LAYER   1   ROW     6   COL     4   RATE    -100.000    
 AG WELL      2   LAYER   1   ROW     6   COL     5   RATE    -100.000    
 AG WELL      3   LAYER   1   ROW     7   COL     4   RATE    -100.000    
 AG WELL      4   LAYER   1   ROW     7   COL     5   RATE    -100.000    
 AG WELL      5   LAYER   1   ROW     8   COL     4   RATE    -100.000    
 AG WELL      6   LAYER   1   ROW     8   COL     5   RATE    -100.000    
 
 

   DIVERSION SEGMENTS     PERIOD    5   STEP  10
 SEGMENT      9   RATE     16.5939    
 
 

        SW IRRIGATION     PERIOD    5   STEP  10
 SEGMENT      9   ROW     6   COL     4   RATE     2.76570    
 SEGMENT      9   ROW     6   COL     5   RATE     2.76570    
 SEGMENT      9   ROW     7   COL     4   RATE     2.76570    
 SEGMENT      9   ROW     7   COL     5   RATE     2.76570    
 SEGMENT      9   ROW     8   COL     4   RATE     2.76570    
 SEGMENT      9   ROW     8   COL     5   RATE     2.76570    
 
 

        GW IRRIGATION     PERIOD    5   STEP  10
 AG WELL      1   ROW     6   COL     4   RATE     100.000    
 AG WELL      2   ROW     6   COL     5   RATE     100.000    
 AG WELL      3   ROW     7   COL     4   RATE     100.000    
 AG WELL      4   ROW     7   COL     5   RATE     100.000    
 AG WELL      5   ROW     8   COL     4   RATE     100.000    
 AG WELL      6   ROW     8   COL     5   RATE     100.000    
 
1
  VOLUMETRIC BUDGET FOR AGRICULTURAL FIELDS AT  END OF TIME STEP   10, STRESS PERIOD   5
  ------------------------------------------------------------------------------

     CUMULATIVE VOLUMES      L**3       RATES FOR THIS TIME STEP      L**3/T
     ------------------                 ------------------------

           IN:                                      IN:
           ---                                      ---
               AG WELLS  =   105200000.0000                 AG WELLS  =         600.0000
      DIVERSION SEGMENTS =     2909447.0000        DIVERSION SEGMENTS =          16.5939
       IRRIGATION PONDS  =           0.0000         IRRIGATION PONDS  =           0.0000
           GW IRRIGATION =           0.0000             GW IRRIGATION =           0.0000
           SW IRRIGATION =           0.0000             SW IRRIGATION =           0.0000
        SYSTEM LOSSES GW =           0.0000          SYSTEM LOSSES GW =           0.0000
        SYSTEM LOSSES SW =           0.0000          SYSTEM LOSSES SW =           0.0000

                TOTAL IN =   108109448.0000                  TOTAL IN =         616.5939

          OUT:                                     OUT:
          ----                                     ----
               AG WELLS  =           0.0000                 AG WELLS  =           0.0000
      DIVERSION SEGMENTS =           0.0000        DIVERSION SEGMENTS =           0.0000
       IRRIGATION PONDS  =           0.0000         IRRIGATION PONDS  =           0.0000
           GW IRRIGATION =   105200000.0000             GW IRRIGATION =         600.0000
           SW IRRIGATION =     2909505.0000             SW IRRIGATION =          16.5942
        SYSTEM LOSSES GW =           0.0000          SYSTEM LOSSES GW =           0.0000
        SYSTEM LOSSES SW =           0.0000          SYSTEM LOSSES SW =           0.0000

               TOTAL OUT =   108109504.0000                 TOTAL OUT =         616.5942

                IN - OUT =         -56.0000                  IN - OUT =      -3.0518E-04

     PERCENT DISCREPANCY =          -0.00         PERCENT DISCREPANCY =          -0.00



1
  VOLUMETRIC BUDGET FOR ENTIRE MODEL AT END OF TIME STEP   10, STRESS PERIOD   5
  ------------------------------------------------------------------------------

     CUMULATIVE VOLUMES      L**3       RATES FOR THIS TIME STEP      L**3/T
     ------------------                 ------------------------

           IN:                                      IN:
           ---                                      ---
             STORAGE     =   118165200.0000               STORAGE     =         602.6360
       CONSTANT HEAD     =           0.0000         CONSTANT HEAD     =           0.0000
     HEAD DEP BOUNDS     =     2529227.5000       HEAD DEP BOUNDS     =           0.2857
      STREAM LEAKAGE     =   105821576.0000        STREAM LEAKAGE     =          11.1190
        UZF RECHARGE     =       73223.9531          UZF RECHARGE     =           0.0000
               GW ET     =           0.0000                 GW ET     =           0.0000
     SURFACE LEAKAGE     =           0.0000       SURFACE LEAKAGE     =           0.0000
           AG WELLS      =           0.0000             AG WELLS      =           0.0000

                TOTAL IN =   226589216.0000                  TOTAL IN =         614.0408

          OUT:                                     OUT:
          ----                                     ----
             STORAGE     =    25570646.0000               STORAGE     =           0.6708
       CONSTANT HEAD     =           0.0000         CONSTANT HEAD     =           0.0000
     HEAD DEP BOUNDS     =     2573966.5000       HEAD DEP BOUNDS     =           0.2928
      STREAM LEAKAGE     =    93198096.0000        STREAM LEAKAGE     =          13.0767
        UZF RECHARGE     =           0.0000          UZF RECHARGE     =           0.0000
               GW ET     =       50344.9531                 GW ET     =           0.0000
     SURFACE LEAKAGE     =           0.0000       SURFACE LEAKAGE     =           0.0000
           AG WELLS      =   105200000.0000             AG WELLS      =         600.0000

               TOTAL OUT =   226593056.0000                 TOTAL OUT =         614.0402

                IN - OUT =       -3840.0000                  IN - OUT =       5.4932E-04

     PERCENT DISCREPANCY =          -0.00         PERCENT DISCREPANCY =           0.00






         TIME SUMMARY AT END OF TIME STEP   10 IN STRESS PERIOD    5
                    SECONDS     MINUTES      HOURS       DAYS        YEARS
                    -----------------------------------------------------------
   TIME STEP LENGTH  87667.      1461.1      24.352      1.0147     2.77799E-03
 STRESS PERIOD TIME 8.76667E+05  14611.      243.52      10.147     2.77799E-02
         TOTAL TIME 8.85306E+06 1.47551E+05  2459.2      102.47     0.28054    
1
 
 SOLVING FOR HEAD 
                                                   Max.-Head-Change                         Max.-Flux-Residual
  Residual-Control   Outer-Iter.   Inner-Iter.     Column Row Layer    Maximum-Head-Change  Column Row Layer    Maximum-Flux-Residual          L2-NORM 
          0                 1           2             5    8     1       0.8652992264E-01       5    8    1         0.4761033043E+01      0.1043124578E+02
          0                 2           2             5    8     1      -0.8416873139E-02       5    8    1        -0.4760943413E+00      0.1043041285E+01
          0                 3           2             5    8     1       0.5731591198E-03       5    8    1         0.3332670327E-01      0.7300847444E-01
          0                 4           1             5    8     1      -0.2280653218E-04       5    8    1        -0.1363063666E-02      0.2985758234E-02

    ------------------------------------------------
       NWT REQUIRED            4 OUTER ITERATIONS 
       AND A TOTAL OF          7 INNER ITERATIONS.
    ------------------------------------------------

 NO OUTPUT CONTROL FOR STRESS PERIOD    5   TIME STEP   11
 
 SOLVING FOR HEAD 
                                                   Max.-Head-Change                         Max.-Flux-Residual
  Residual-Control   Outer-Iter.   Inner-Iter.     Column Row Layer    Maximum-Head-Change  Column Row Layer    Maximum-Flux-Residual          L2-NORM 
          0                 1           2             5    8     1       0.8179998891E-01       5    8    1         0.4496661076E+01      0.9952923946E+01
          0                 2           2             5    8     1      -0.7956793965E-02       5    8    1        -0.4496581536E+00      0.9952149201E+00
          0                 3           2             5    8     1       0.5418292933E-03       5    8    1         0.3147615980E-01      0.6966107055E-01
          0                 4           1             5    8     1      -0.2155988965E-04       5    8    1        -0.1287376384E-02      0.2848866700E-02

    ------------------------------------------------
       NWT REQUIRED            4 OUTER ITERATIONS 
       AND A TOTAL OF          7 INNER ITERATIONS.
    ------------------------------------------------

 NO OUTPUT CONTROL FOR STRESS PERIOD    5   TIME STEP   12
 
 SOLVING FOR HEAD 
                                                   Max.-Head-Change                         Max.-Flux-Residual
  Residual-Control   Outer-Iter.   Inner-Iter.     Column Row Layer    Maximum-Head-Change  Column Row Layer    Maximum-Flux-Residual          L2-NORM 
          0                 1           2             5    8     1       0.7739948935E-01       5    8    1         0.4250874992E+01      0.9506882342E+01
          0                 2           2             5    8     1      -0.7528757758E-02       5    8    1        -0.4250804135E+00      0.9506186566E+00
          0                 3           2             5    8     1       0.5126814927E-03       5    8    1         0.2975570901E-01      0.6653974201E-01
          0                 4           1             5    8     1      -0.2040007199E-04       5    8    1        -0.1217009879E-02      0.2721258030E-02

    ------------------------------------------------
       NWT REQUIRED            4 OUTER ITERATIONS 
       AND A TOTAL OF          7 INNER ITERATIONS.
    ------------------------------------------------

 NO OUTPUT CONTROL FOR STRESS PERIOD    5   TIME STEP   13
 
 SOLVING FOR HEAD 
                                                   Max.-Head-Change                         Max.-Flux-Residual
  Residual-Control   Outer-Iter.   Inner-Iter.     Column Row Layer    Maximum-Head-Change  Column Row Layer    Maximum-Flux-Residual          L2-NORM 
          0                 1           2             5    8     1       0.7330235660E-01       5    8    1         0.4022193311E+01      0.9090512101E+01
          0                 2           2             5    8     1      -0.7130229189E-02       5    8    1        -0.4022129953E+00      0.9089887365E+00
          0                 3           2             5    8     1       0.4855430700E-03       5    8    1         0.2815498196E-01      0.6362598473E-01
          0                 4           1             5    8     1      -0.1932020906E-04       5    8    1        -0.1151540087E-02      0.2602059115E-02

    ------------------------------------------------
       NWT REQUIRED            4 OUTER ITERATIONS 
       AND A TOTAL OF          7 INNER ITERATIONS.
    ------------------------------------------------

 NO OUTPUT CONTROL FOR STRESS PERIOD    5   TIME STEP   14
 
 SOLVING FOR HEAD 
                                                   Max.-Head-Change                         Max.-Flux-Residual
  Residual-Control   Outer-Iter.   Inner-Iter.     Column Row Layer    Maximum-Head-Change  Column Row Layer    Maximum-Flux-Residual          L2-NORM 
          0                 1           2             5    8     1       0.6948492559E-01       5    8    1         0.3809272348E+01      0.8701425062E+01
          0                 2           2             5    8     1      -0.6758906217E-02       5    8    1        -0.3809215302E+00      0.8700864687E+00
          0                 3           2             5    8     1       0.4602572611E-03       5    8    1         0.2666457261E-01      0.6090320108E-01
          0                 4           1             5    8     1      -0.1831406371E-04       5    8    1        -0.1090582283E-02      0.2490747889E-02

    ------------------------------------------------
       NWT REQUIRED            4 OUTER ITERATIONS 
       AND A TOTAL OF          7 INNER ITERATIONS.
    ------------------------------------------------

 NO OUTPUT CONTROL FOR STRESS PERIOD    5   TIME STEP   15
 
 SOLVING FOR HEAD 
                                                   Max.-Head-Change                         Max.-Flux-Residual
  Residual-Control   Outer-Iter.   Inner-Iter.     Column Row Layer    Maximum-Head-Change  Column Row Layer    Maximum-Flux-Residual          L2-NORM 
          0                 1           2             5    8     1       0.6592585661E-01       5    8    1         0.3610900850E+01      0.8337487004E+01
          0                 2           2             5    8     1      -0.6412714292E-02       5    8    1        -0.3610849638E+00      0.8336984448E+00
          0                 3           2             5    8     1       0.4366827951E-03       5    8    1         0.2527600700E-01      0.5835633498E-01
          0                 4           1             5    8     1      -0.1737601393E-04       5    8    1        -0.1033789905E-02      0.2386594344E-02

    ------------------------------------------------
       NWT REQUIRED            4 OUTER ITERATIONS 
       AND A TOTAL OF          7 INNER ITERATIONS.
    ------------------------------------------------

 NO OUTPUT CONTROL FOR STRESS PERIOD    5   TIME STEP   16
 
 SOLVING FOR HEAD 
                                                   Max.-Head-Change                         Max.-Flux-Residual
  Residual-Control   Outer-Iter.   Inner-Iter.     Column Row Layer    Maximum-Head-Change  Column Row Layer    Maximum-Flux-Residual          L2-NORM 
          0                 1           2             5    8     1       0.6260522725E-01       5    8    1         0.3425948763E+01      0.7996708381E+01
          0                 2           2             5    8     1      -0.6089714682E-02       5    8    1        -0.3425902483E+00      0.7996257420E+00
          0                 3           2             5    8     1       0.4146876498E-03       5    8    1         0.2398137170E-01      0.5597149182E-01
          0                 4           1             5    8     1      -0.1650080677E-04       5    8    1        -0.9808392622E-03      0.2289085814E-02

    ------------------------------------------------
       NWT REQUIRED            4 OUTER ITERATIONS 
       AND A TOTAL OF          7 INNER ITERATIONS.
    ------------------------------------------------

 NO OUTPUT CONTROL FOR STRESS PERIOD    5   TIME STEP   17
 
 SOLVING FOR HEAD 
                                                   Max.-Head-Change                         Max.-Flux-Residual
  Residual-Control   Outer-Iter.   Inner-Iter.     Column Row Layer    Maximum-Head-Change  Column Row Layer    Maximum-Flux-Residual          L2-NORM 
          0                 1           2             5    8     1       0.5950495928E-01       5    8    1         0.3253391012E+01      0.7677313138E+01
          0                 2           2             5    8     1      -0.5788149020E-02       5    8    1        -0.3253348867E+00      0.7676907863E+00
          0                 3           2             5    8     1       0.3941520853E-03       5    8    1         0.2277349176E-01      0.5373634321E-01
          0                 4           1             5    8     1      -0.1568367769E-04       5    8    1        -0.9314369147E-03      0.2197669154E-02

    ------------------------------------------------
       NWT REQUIRED            4 OUTER ITERATIONS 
       AND A TOTAL OF          7 INNER ITERATIONS.
    ------------------------------------------------

 NO OUTPUT CONTROL FOR STRESS PERIOD    5   TIME STEP   18
 
 SOLVING FOR HEAD 
                                                   Max.-Head-Change                         Max.-Flux-Residual
  Residual-Control   Outer-Iter.   Inner-Iter.     Column Row Layer    Maximum-Head-Change  Column Row Layer    Maximum-Flux-Residual          L2-NORM 
          0                 1           2             5    8     1       0.5660823068E-01       5    8    1         0.3092274511E+01      0.7377649125E+01
          0                 2           2             4    7     1      -0.1866100524E+01       5    8    1        -0.1003092236E+03      0.2455643428E+03
          0                 3           2             4    7     1       0.1270550961E+00       5    6    1         0.7019417407E+01      0.1719209194E+02
          0                 4           2             4    7     1      -0.5055734625E-02       5    6    1        -0.2869873381E+00      0.7043540222E+00
          0                 5           1             4    7     1       0.6233924605E-04       4    7    1         0.3632714085E-02      0.9447392532E-02

    ------------------------------------------------
       NWT REQUIRED            5 OUTER ITERATIONS 
       AND A TOTAL OF          9 INNER ITERATIONS.
    ------------------------------------------------

 NO OUTPUT CONTROL FOR STRESS PERIOD    5   TIME STEP   19
 
 SOLVING FOR HEAD 
                                                   Max.-Head-Change                         Max.-Flux-Residual
  Residual-Control   Outer-Iter.   Inner-Iter.     Column Row Layer    Maximum-Head-Change  Column Row Layer    Maximum-Flux-Residual          L2-NORM 
          0                 1           2             5    8     1       0.1080671294E+00       5    8    1         0.5931622228E+01      0.1327531744E+02
          0                 2           2             5    8     1      -0.1051178924E-01       5    8    1        -0.5931486247E+00      0.1327473514E+01
          0                 3           2             5    8     1       0.7158157930E-03       5    8    1         0.4152055048E-01      0.9292307156E-01
          0                 4           1             5    8     1      -0.2848297185E-04       5    8    1        -0.1698192281E-02      0.3800512676E-02

    ------------------------------------------------
       NWT REQUIRED            4 OUTER ITERATIONS 
       AND A TOTAL OF          7 INNER ITERATIONS.
    ------------------------------------------------

 NO OUTPUT CONTROL FOR STRESS PERIOD    5   TIME STEP   20
 
 SOLVING FOR HEAD 
                                                   Max.-Head-Change                         Max.-Flux-Residual
  Residual-Control   Outer-Iter.   Inner-Iter.     Column Row Layer    Maximum-Head-Change  Column Row Layer    Maximum-Flux-Residual          L2-NORM 
          0                 1           2             5    8     1       0.1024086697E+00       5    8    1         0.5615857388E+01      0.1270598872E+02
          0                 2           2             5    8     1      -0.9961402278E-02       5    8    1        -0.5615735518E+00      0.1270367055E+01
          0                 3           2             5    8     1       0.6783361525E-03       5    8    1         0.3931027358E-01      0.8892559401E-01
          0                 4           1             5    8     1      -0.2699162296E-04       5    8    1        -0.1607791907E-02      0.3637017364E-02

    ------------------------------------------------
       NWT REQUIRED            4 OUTER ITERATIONS 
       AND A TOTAL OF          7 INNER ITERATIONS.
    ------------------------------------------------

 NO OUTPUT CONTROL FOR STRESS PERIOD    5   TIME STEP   21
 
 SOLVING FOR HEAD 
                                                   Max.-Head-Change                         Max.-Flux-Residual
  Residual-Control   Outer-Iter.   Inner-Iter.     Column Row Layer    Maximum-Head-Change  Column Row Layer    Maximum-Flux-Residual          L2-NORM 
          0                 1           2             5    8     1       0.9713550682E-01       5    8    1         0.5321803790E+01      0.1217394779E+02
          0                 2           2             5    8     1      -0.9448478316E-02       5    8    1        -0.5321694293E+00      0.1217346903E+01
          0                 3           2             5    8     1       0.6434078912E-03       5    8    1         0.3725197990E-01      0.8521419267E-01
          0                 4           1             5    8     1      -0.2560179532E-04       5    8    1        -0.1523607626E-02      0.3485225602E-02

    ------------------------------------------------
       NWT REQUIRED            4 OUTER ITERATIONS 
       AND A TOTAL OF          7 INNER ITERATIONS.
    ------------------------------------------------

 NO OUTPUT CONTROL FOR STRESS PERIOD    5   TIME STEP   22
 
 SOLVING FOR HEAD 
                                                   Max.-Head-Change                         Max.-Flux-Residual
  Residual-Control   Outer-Iter.   Inner-Iter.     Column Row Layer    Maximum-Head-Change  Column Row Layer    Maximum-Flux-Residual          L2-NORM 
          0                 1           2             5    8     1       0.9221807995E-01       5    8    1         0.5047783018E+01      0.1167616088E+02
          0                 2           2             5    8     1      -0.8970162102E-02       5    8    1        -0.5047684221E+00      0.1167573157E+01
          0                 3           2             5    8     1       0.6108361805E-03       5    8    1         0.3533389845E-01      0.8173012024E-01
          0                 4           1             5    8     1      -0.2430573738E-04       5    8    1        -0.1445158036E-02      0.3342823330E-02

    ------------------------------------------------
       NWT REQUIRED            4 OUTER ITERATIONS 
       AND A TOTAL OF          7 INNER ITERATIONS.
    ------------------------------------------------

 NO OUTPUT CONTROL FOR STRESS PERIOD    5   TIME STEP   23
 
 SOLVING FOR HEAD 
                                                   Max.-Head-Change                         Max.-Flux-Residual
  Residual-Control   Outer-Iter.   Inner-Iter.     Column Row Layer    Maximum-Head-Change  Column Row Layer    Maximum-Flux-Residual          L2-NORM 
          0                 1           2             5    8     1       0.8762894345E-01       5    8    1         0.4792237754E+01      0.1120984440E+02
          0                 2           2             5    8     1      -0.8523777327E-02       5    8    1        -0.4792148117E+00      0.1120945829E+01
          0                 3           2             5    8     1       0.5804389011E-03       5    8    1         0.3354513613E-01      0.7846614184E-01
          0                 4           1             5    8     1      -0.2309620140E-04       5    8    1        -0.1371997575E-02      0.3209242524E-02

    ------------------------------------------------
       NWT REQUIRED            4 OUTER ITERATIONS 
       AND A TOTAL OF          7 INNER ITERATIONS.
    ------------------------------------------------

 NO OUTPUT CONTROL FOR STRESS PERIOD    5   TIME STEP   24
 
 SOLVING FOR HEAD 
                                                   Max.-Head-Change                         Max.-Flux-Residual
  Residual-Control   Outer-Iter.   Inner-Iter.     Column Row Layer    Maximum-Head-Change  Column Row Layer    Maximum-Flux-Residual          L2-NORM 
          0                 1           2             5    8     1       0.8334342757E-01       5    8    1         0.4553768915E+01      0.1077258035E+02
          0                 2           2             5    8     1      -0.8106925591E-02       5    8    1        -0.4553687656E+00      0.1077223429E+01
          0                 3           2             5    8     1       0.5520527281E-03       5    8    1         0.3187590442E-01      0.7540557359E-01
          0                 4           1             5    8     1      -0.2196668969E-04       5    8    1        -0.1303725951E-02      0.3084060494E-02

    ------------------------------------------------
       NWT REQUIRED            4 OUTER ITERATIONS 
       AND A TOTAL OF          7 INNER ITERATIONS.
    ------------------------------------------------

 NO OUTPUT CONTROL FOR STRESS PERIOD    5   TIME STEP   25
 
 SOLVING FOR HEAD 
                                                   Max.-Head-Change                         Max.-Flux-Residual
  Residual-Control   Outer-Iter.   Inner-Iter.     Column Row Layer    Maximum-Head-Change  Column Row Layer    Maximum-Flux-Residual          L2-NORM 
          0                 1           2             5    8     1       0.7933825317E-01       5    8    1         0.4331058135E+01      0.1036211441E+02
          0                 2           2             5    8     1      -0.7717341699E-02       5    8    1        -0.4330984084E+00      0.1036180354E+01
          0                 3           2             5    8     1       0.5255234082E-03       5    8    1         0.3031697192E-01      0.7253256054E-01
          0                 4           1             5    8     1      -0.2091106365E-04       5    8    1        -0.1239965564E-02      0.2966547540E-02

    ------------------------------------------------
       NWT REQUIRED            4 OUTER ITERATIONS 
       AND A TOTAL OF          7 INNER ITERATIONS.
    ------------------------------------------------

 NO OUTPUT CONTROL FOR STRESS PERIOD    5   TIME STEP   26
 
 SOLVING FOR HEAD 
                                                   Max.-Head-Change                         Max.-Flux-Residual
  Residual-Control   Outer-Iter.   Inner-Iter.     Column Row Layer    Maximum-Head-Change  Column Row Layer    Maximum-Flux-Residual          L2-NORM 
          0                 1           2             5    8     1       0.7559267335E-01       5    8    1         0.4122929858E+01      0.9976412018E+01
          0                 2           2             5    8     1      -0.7353007744E-02       5    8    1        -0.4122861989E+00      0.9976132488E+00
          0                 3           2             5    8     1       0.5007135270E-03       5    8    1         0.2886011061E-01      0.6983287352E-01
          0                 4           1             5    8     1      -0.1992385565E-04       5    8    1        -0.1180379872E-02      0.2856147940E-02

    ------------------------------------------------
       NWT REQUIRED            4 OUTER ITERATIONS 
       AND A TOTAL OF          7 INNER ITERATIONS.
    ------------------------------------------------

 NO OUTPUT CONTROL FOR STRESS PERIOD    5   TIME STEP   27
 
 SOLVING FOR HEAD 
                                                   Max.-Head-Change                         Max.-Flux-Residual
  Residual-Control   Outer-Iter.   Inner-Iter.     Column Row Layer    Maximum-Head-Change  Column Row Layer    Maximum-Flux-Residual          L2-NORM 
          0                 1           2             5    6     1       0.7210885986E-01       5    8    1         0.3928284814E+01      0.9613605679E+01
          0                 2           2             4    7     1      -0.1867704969E+01       5    8    1        -0.1003928223E+03      0.2457711298E+03
          0                 3           2             4    7     1       0.1271643371E+00       5    6    1         0.7025337242E+01      0.1720660337E+02
          0                 4           2             4    7     1      -0.5060081466E-02       5    6    1        -0.2872315258E+00      0.7049486097E+00
          0                 5           1             4    7     1       0.6239284436E-04       4    7    1         0.3635768438E-02      0.9455151396E-02

    ------------------------------------------------
       NWT REQUIRED            5 OUTER ITERATIONS 
       AND A TOTAL OF          9 INNER ITERATIONS.
    ------------------------------------------------

 NO OUTPUT CONTROL FOR STRESS PERIOD    5   TIME STEP   28
 
 SOLVING FOR HEAD 
                                                   Max.-Head-Change                         Max.-Flux-Residual
  Residual-Control   Outer-Iter.   Inner-Iter.     Column Row Layer    Maximum-Head-Change  Column Row Layer    Maximum-Flux-Residual          L2-NORM 
          0                 1           2             5    8     1       0.1229655117E+00       5    8    1         0.6735299042E+01      0.1535361437E+02
          0                 2           2             5    8     1      -0.1196094547E-01       5    8    1        -0.6735128350E+00      0.1536923479E+01
          0                 3           2             5    8     1       0.8144984501E-03       5    8    1         0.4714608047E-01      0.1075826836E+00
          0                 4           1             5    8     1      -0.3240964446E-04       5    8    1        -0.1928276621E-02      0.4399975215E-02

    ------------------------------------------------
       NWT REQUIRED            4 OUTER ITERATIONS 
       AND A TOTAL OF          7 INNER ITERATIONS.
    ------------------------------------------------

 NO OUTPUT CONTROL FOR STRESS PERIOD    5   TIME STEP   29
 
 SOLVING FOR HEAD 
                                                   Max.-Head-Change                         Max.-Flux-Residual
  Residual-Control   Outer-Iter.   Inner-Iter.     Column Row Layer    Maximum-Head-Change  Column Row Layer    Maximum-Flux-Residual          L2-NORM 
          0                 1           2             5    8     1       0.1167859312E+00       5    8    1         0.6390043328E+01      0.1483190885E+02
          0                 2           2             5    8     1      -0.1135987123E-01       5    8    1        -0.6389893888E+00      0.1482313712E+01
          0                 3           2             5    8     1       0.7735672249E-03       5    8    1         0.4472941808E-01      0.1036885762E+00
          0                 4           1             5    8     1      -0.3078095433E-04       5    8    1        -0.1829435090E-02      0.4236413539E-02

    ------------------------------------------------
       NWT REQUIRED            4 OUTER ITERATIONS 
       AND A TOTAL OF          7 INNER ITERATIONS.
    ------------------------------------------------

 NO OUTPUT CONTROL FOR STRESS PERIOD    5   TIME STEP   30



 STREAM LISTING     PERIOD      5   STEP       30

 LAYER ROW COL. STREAM  RCH.  FLOW INTO     FLOW TO   FLOW OUT OF   OVRLND.     DIRECT     STREAM       STREAM     STREAM     STREAM   STREAMBED  STREAMBED
                SEG.NO.  NO.  STRM. RCH.    AQUIFER    STRM. RCH.    RUNOFF     PRECIP       ET          HEAD       DEPTH      WIDTH   CONDCTNC.   GRADIENT

   1    1    1     1     1    7.4250E+01  4.1989E-01   7.3830E+01  0.000E+00  0.000E+00  0.000E+00  1.09474E+03  1.690E+00  1.990E+01  8.954E-02  1.563E+00
   1    2    2     1     2    7.3830E+01  6.5045E-01   7.3180E+01  0.000E+00  0.000E+00  0.000E+00  1.08974E+03  1.684E+00  1.984E+01  1.389E-01  1.561E+00
   1    3    3     1     3    7.3180E+01  5.5490E-01   7.2625E+01  0.000E+00  0.000E+00  0.000E+00  1.08410E+03  1.677E+00  1.977E+01  1.186E-01  1.559E+00
   1    3    4     1     4    7.2625E+01  5.1113E-01   7.2114E+01  0.000E+00  0.000E+00  0.000E+00  1.07908E+03  1.671E+00  1.972E+01  1.094E-01  1.557E+00
   1    4    5     2     1    7.0114E+01  4.0857E-01   6.9705E+01  0.000E+00  0.000E+00  0.000E+00  1.07417E+03  2.238E+00  1.200E+01  7.800E-02  1.746E+00
   1    5    6     2     2    6.9705E+01  3.1387E-01   6.9391E+01  0.000E+00  0.000E+00  0.000E+00  1.06874E+03  2.231E+00  1.200E+01  6.000E-02  1.744E+00
   1    6    6     2     3    6.9391E+01  3.1350E-01   6.9078E+01  0.000E+00  0.000E+00  0.000E+00  1.06402E+03  2.225E+00  1.200E+01  6.000E-02  1.742E+00
   1    7    6     2     4    6.9078E+01  3.1314E-01   6.8765E+01  0.000E+00  0.000E+00  0.000E+00  1.05929E+03  2.219E+00  1.200E+01  6.000E-02  1.740E+00
   1    8    6     2     5    6.8765E+01  3.1278E-01   6.8452E+01  0.000E+00  0.000E+00  0.000E+00  1.05457E+03  2.213E+00  1.200E+01  6.000E-02  1.738E+00
   1    3    5     3     1    2.0000E+00  2.8252E-01   1.7175E+00  0.000E+00  0.000E+00  0.000E+00  1.07555E+03  1.909E+00  9.636E+00  7.227E-02  1.955E+00
   1    3    6     3     2    1.7175E+00  2.4905E-01   1.4684E+00  0.000E+00  0.000E+00  0.000E+00  1.07264E+03  1.727E+00  8.909E+00  6.682E-02  1.864E+00
   1    3    7     3     3    1.4684E+00  1.9718E-01   1.2712E+00  0.000E+00  0.000E+00  0.000E+00  1.06987E+03  1.555E+00  8.218E+00  5.547E-02  1.777E+00
   1    4    8     3     4    1.2712E+00  2.2567E-01   1.0456E+00  0.000E+00  0.000E+00  0.000E+00  1.06682E+03  1.364E+00  7.455E+00  6.709E-02  1.682E+00
   1    5    8     3     5    1.0456E+00  1.5790E-01   8.8768E-01  0.000E+00  0.000E+00  0.000E+00  1.06362E+03  1.164E+00  6.655E+00  4.991E-02  1.582E+00
   1    6    8     3     6    8.8768E-01  5.5980E-02   8.3170E-01  0.000E+00  0.000E+00  0.000E+00  1.06158E+03  1.036E+00  6.145E+00  1.844E-02  1.518E+00
   1    5   10     4     1    1.0000E+01  9.0919E-02   9.9091E+00  0.000E+00  0.000E+00  0.000E+00  1.07836E+03  6.368E-01  1.000E+01  2.500E-02  1.212E+00
   1    5    9     4     2    9.9091E+00  1.8158E-01   9.7275E+00  0.000E+00  0.000E+00  0.000E+00  1.07154E+03  6.315E-01  1.000E+01  5.000E-02  1.211E+00
   1    6    8     4     3    9.7275E+00  1.2689E-01   9.6006E+00  0.000E+00  0.000E+00  0.000E+00  1.06381E+03  6.256E-01  1.000E+01  3.500E-02  1.209E+00
   1    6    8     5     1    1.0432E+01  2.2686E-01   1.0205E+01  0.000E+00  0.000E+00  0.000E+00  1.05868E+03  6.790E-01  1.542E+01  6.166E-02  1.226E+00
   1    7    7     5     2    1.0205E+01  2.7894E-01   9.9265E+00  0.000E+00  0.000E+00  0.000E+00  1.05417E+03  6.732E-01  1.519E+01  7.594E-02  1.224E+00
   1    8    7     5     3    9.9265E+00  1.9221E-01   9.7343E+00  0.000E+00  0.000E+00  0.000E+00  1.04992E+03  6.676E-01  1.497E+01  5.241E-02  1.223E+00
   1    8    6     5     4    9.7343E+00  1.3577E-01   9.5985E+00  0.000E+00  0.000E+00  0.000E+00  1.04691E+03  6.637E-01  1.482E+01  3.706E-02  1.221E+00
   1    9    6     6     1    7.8051E+01  3.2488E-01   7.7726E+01  0.000E+00  0.000E+00  0.000E+00  1.04514E+03  2.415E+00  1.200E+01  6.000E-02  1.805E+00
   1   10    7     6     2    7.7726E+01  3.2452E-01   7.7401E+01  0.000E+00  0.000E+00  0.000E+00  1.04059E+03  2.409E+00  1.200E+01  6.000E-02  1.803E+00
   1   11    7     6     3    7.7401E+01  3.2415E-01   7.7077E+01  0.000E+00  0.000E+00  0.000E+00  1.03604E+03  2.403E+00  1.200E+01  6.000E-02  1.801E+00
   1   12    7     6     4    7.7077E+01  3.2379E-01   7.6753E+01  0.000E+00  0.000E+00  0.000E+00  1.03149E+03  2.397E+00  1.200E+01  6.000E-02  1.799E+00
   1   13    7     6     5    7.6753E+01  2.8069E-02   7.6725E+01  0.000E+00  0.000E+00  0.000E+00  1.02830E+03  2.393E+00  1.200E+01  2.400E-02  3.898E-01
   1   14    9     7     1    1.5000E+02  1.3357E+00   1.4866E+02  0.000E+00  0.000E+00  0.000E+00  1.03987E+03  2.288E+00  5.529E+01  5.593E-01  7.961E-01
   1   13    8     7     2    1.4866E+02  1.8240E+00   1.4684E+02  0.000E+00  0.000E+00  0.000E+00  1.03478E+03  2.279E+00  5.526E+01  6.148E-01  9.890E-01
   1   13    7     7     3    1.4684E+02  1.4281E+00   1.4541E+02  0.000E+00  0.000E+00  0.000E+00  1.02969E+03  2.271E+00  5.522E+01  5.585E-01  8.524E-01
   1   13    6     8     1    2.2214E+02  1.1039E+00   2.2103E+02  0.000E+00  0.000E+00  0.000E+00  1.02514E+03  3.261E+00  4.728E+01  4.818E-01  7.637E-01
   1   13    5     8     2    2.2103E+02  2.7268E-01   2.2076E+02  0.000E+00  0.000E+00  0.000E+00  1.01888E+03  3.257E+00  4.722E+01  4.812E-01  1.889E-01
   1   13    4     8     3    2.2076E+02 -1.5717E+00   2.2233E+02  0.000E+00  0.000E+00  0.000E+00  1.01264E+03  3.260E+00  4.728E+01  4.818E+00 -1.087E-01
   1   13    3     8     4    2.2233E+02 -2.8029E+00   2.2514E+02  0.000E+00  0.000E+00  0.000E+00  1.00640E+03  3.272E+00  4.745E+01  4.835E+00 -1.932E-01
   1   13    2     8     5    2.2514E+02 -1.5897E+00   2.2672E+02  0.000E+00  0.000E+00  0.000E+00  1.00016E+03  3.284E+00  4.763E+01  4.853E+00 -1.092E-01
   1   13    1     8     6    2.2672E+02 -1.4517E+00   2.2818E+02  0.000E+00  0.000E+00  0.000E+00  9.95168E+02  3.293E+00  4.775E+01  2.919E+00 -1.658E-01
   1    8    6     9     1    4.4264E-07  0.0000E+00   4.4264E-07  0.000E+00  0.000E+00  0.000E+00  1.07875E+03  7.379E-05  4.000E+00  0.000E+00  1.000E+00
   1    8    5     9     2    4.4264E-07  0.0000E+00   4.4264E-07  0.000E+00  0.000E+00  0.000E+00  1.07825E+03  7.379E-05  4.000E+00  0.000E+00  1.000E+00





UNSATURATED ZONE PACKAGE VOLUMETRIC BUDGET FOR  TIME STEP    30 STRESS PERIOD    5
  ------------------------------------------------------------------------------



     CUMULATIVE VOLUMES      L**3       RATES FOR THIS TIME STEP      L**3/T
     ------------------                 ------------------------

           IN:                                      IN:
           ---                                      ---
        INFILTRATION =   225207934.2601          INFILTRATION =           0.8475

          OUT:                                     OUT:
          ----                                     ----
              UZF ET =    18615901.1308                UZF ET =           4.5675
        UZF RECHARGE =       73224.0000          UZF RECHARGE =       0.0000E+00

            IN - OUT =   206518809.1293              IN - OUT =          -3.7200

          STORAGE:                                 STORAGE:
          --------                                 --------
      STORAGE CHANGE =   206689127.9489        STORAGE CHANGE =          -3.7200

 PERCENT DISCREPANCY IS DIFFERENCE BETWEEN IN-OUT MINUS CHANGE IN STORAGE
 DIVIDED BY THE AVERAGE OF IN AND OUT TIMES 100

 PERCENT DISCREPANCY =          -0.02     PERCENT DISCREPANCY =           0.00






1
  VOLUMETRIC BUDGET FOR AGRICULTURAL FIELDS AT  END OF TIME STEP   30, STRESS PERIOD   5
  ------------------------------------------------------------------------------

     CUMULATIVE VOLUMES      L**3       RATES FOR THIS TIME STEP      L**3/T
     ------------------                 ------------------------

           IN:                                      IN:
           ---                                      ---
               AG WELLS  =   210400000.0000                 AG WELLS  =       1.1066E-07
      DIVERSION SEGMENTS =     5818904.0000        DIVERSION SEGMENTS =       4.4264E-07
       IRRIGATION PONDS  =           0.0000         IRRIGATION PONDS  =           0.0000
           GW IRRIGATION =           0.0000             GW IRRIGATION =           0.0000
           SW IRRIGATION =           0.0000             SW IRRIGATION =           0.0000
        SYSTEM LOSSES GW =           0.0000          SYSTEM LOSSES GW =           0.0000
        SYSTEM LOSSES SW =           0.0000          SYSTEM LOSSES SW =           0.0000

                TOTAL IN =   216218912.0000                  TOTAL IN =       5.5330E-07

          OUT:                                     OUT:
          ----                                     ----
               AG WELLS  =           0.0000                 AG WELLS  =           0.0000
      DIVERSION SEGMENTS =           0.0000        DIVERSION SEGMENTS =           0.0000
       IRRIGATION PONDS  =           0.0000         IRRIGATION PONDS  =           0.0000
           GW IRRIGATION =   210400000.0000             GW IRRIGATION =       1.1066E-07
           SW IRRIGATION =     5819020.0000             SW IRRIGATION =       4.4265E-07
        SYSTEM LOSSES GW =           0.0000          SYSTEM LOSSES GW =           0.0000
        SYSTEM LOSSES SW =           0.0000          SYSTEM LOSSES SW =           0.0000

               TOTAL OUT =   216219024.0000                 TOTAL OUT =       5.5331E-07

                IN - OUT =        -112.0000                  IN - OUT =      -8.8107E-12

     PERCENT DISCREPANCY =          -0.00         PERCENT DISCREPANCY =          -0.00



1
  VOLUMETRIC BUDGET FOR ENTIRE MODEL AT END OF TIME STEP   30, STRESS PERIOD   5
  ------------------------------------------------------------------------------

     CUMULATIVE VOLUMES      L**3       RATES FOR THIS TIME STEP      L**3/T
     ------------------                 ------------------------

           IN:                                      IN:
           ---                                      ---
             STORAGE     =   257206768.0000               STORAGE     =          28.3142
       CONSTANT HEAD     =           0.0000         CONSTANT HEAD     =           0.0000
     HEAD DEP BOUNDS     =     3030241.0000       HEAD DEP BOUNDS     =           0.2858
      STREAM LEAKAGE     =   125975840.0000        STREAM LEAKAGE     =          13.4895
        UZF RECHARGE     =       73223.9531          UZF RECHARGE     =           0.0000
               GW ET     =           0.0000                 GW ET     =           0.0000
     SURFACE LEAKAGE     =           0.0000       SURFACE LEAKAGE     =           0.0000
           AG WELLS      =           0.0000             AG WELLS      =           0.0000

                TOTAL IN =   386286080.0000                  TOTAL IN =          42.0895

          OUT:                                     OUT:
          ----                                     ----
             STORAGE     =    59830496.0000               STORAGE     =          34.3823
       CONSTANT HEAD     =           0.0000         CONSTANT HEAD     =           0.0000
     HEAD DEP BOUNDS     =     3085314.7500       HEAD DEP BOUNDS     =           0.2913
      STREAM LEAKAGE     =   112923680.0000        STREAM LEAKAGE     =           7.4158
        UZF RECHARGE     =           0.0000          UZF RECHARGE     =           0.0000
               GW ET     =       50344.9531                 GW ET     =           0.0000
     SURFACE LEAKAGE     =           0.0000       SURFACE LEAKAGE     =           0.0000
           AG WELLS      =   210400000.0000             AG WELLS      =       1.1066E-07

               TOTAL OUT =   386289856.0000                 TOTAL OUT =          42.0894

                IN - OUT =       -3776.0000                  IN - OUT =       2.2888E-05

     PERCENT DISCREPANCY =          -0.00         PERCENT DISCREPANCY =           0.00






         TIME SUMMARY AT END OF TIME STEP   30 IN STRESS PERIOD    5
                    SECONDS     MINUTES      HOURS       DAYS        YEARS
                    -----------------------------------------------------------
   TIME STEP LENGTH  87667.      1461.1      24.352      1.0147     2.77799E-03
 STRESS PERIOD TIME 2.63000E+06  43833.      730.56      30.440     8.33397E-02
         TOTAL TIME 1.06064E+07 1.76773E+05  2946.2      122.76     0.33610    
1
1
                            STRESS PERIOD NO.    6, LENGTH =   2630000.    
                            -----------------------------------------------

                              NUMBER OF TIME STEPS =    30

                               MULTIPLIER FOR DELT =     1.000

                            INITIAL TIME STEP SIZE =   87666.66    

 REUSING NON-PARAMETER GHB CELLS FROM LAST STRESS PERIOD

      2 GHB CELLS

 REUSING STREAM SEGMENT DATA FROM LAST STRESS PERIOD



            AREAL INFILTRATION RATE
 READING ON UNIT   19 WITH FORMAT: (FREE)              

            1           2           3           4           5           6           7           8           9          10
 ........................................................................................................................
   1   1.0000E-10  2.0000E-10   0.000       0.000       0.000       0.000       0.000       0.000       0.000       0.000    
   2   2.0000E-10  1.0000E-10  2.0000E-10   0.000       0.000      8.0000E-10  8.0000E-10  5.0000E-10   0.000       0.000    
   3    0.000      5.0000E-10  1.0000E-10  1.0000E-10  8.0000E-10  8.0000E-10  5.0000E-10  5.0000E-10   0.000       0.000    
   4   8.0000E-10  5.0000E-10  1.0000E-10  1.0000E-10  1.0000E-10  1.0000E-10  1.0000E-10  1.0000E-10  2.0000E-10   0.000    
   5   8.0000E-10  5.0000E-10  1.0000E-10  1.0000E-10  1.0000E-10  1.0000E-10  1.0000E-10  1.0000E-10  1.0000E-10  1.0000E-10
   6   8.0000E-10  5.0000E-10  5.0000E-10  2.0000E-10  2.0000E-10  1.0000E-10  1.0000E-10  1.0000E-10  1.0000E-10  5.0000E-10
   7   8.0000E-10  5.0000E-10  5.0000E-10  2.0000E-10  2.0000E-10  1.0000E-10  1.0000E-10  2.0000E-10  2.0000E-10   0.000    
   8    0.000      5.0000E-10  5.0000E-10  2.0000E-10  2.0000E-10  1.0000E-10  1.0000E-10  2.0000E-10  5.0000E-10   0.000    
   9    0.000      5.0000E-10  5.0000E-10  2.0000E-10  2.0000E-10  1.0000E-10  1.0000E-10  2.0000E-10  5.0000E-10   0.000    
  10    0.000      5.0000E-10  5.0000E-10  2.0000E-10  2.0000E-10  1.0000E-10  1.0000E-10  2.0000E-10  5.0000E-10  8.0000E-10
  11    0.000      1.0000E-10  1.0000E-10  1.0000E-10  1.0000E-10  1.0000E-10  1.0000E-10  2.0000E-10  5.0000E-10   0.000    
  12   1.0000E-10  1.0000E-10  1.0000E-10  1.0000E-10  1.0000E-10  1.0000E-10  1.0000E-10  1.0000E-10  2.0000E-10   0.000    
  13   1.0000E-10  1.0000E-10  2.0000E-10  2.0000E-10  2.0000E-10  2.0000E-10  2.0000E-10  1.0000E-10  1.0000E-10   0.000    
  14    0.000      2.0000E-10  5.0000E-10  5.0000E-10  5.0000E-10  5.0000E-10  5.0000E-10  2.0000E-10  1.0000E-10   0.000    
  15    0.000       0.000      8.0000E-10  8.0000E-10  8.0000E-10  8.0000E-10   0.000       0.000       0.000       0.000    

                  ET RATE =  5.000000E-08

 USING ET EXTINCTION DEPTH FROM PREVIOUS STRESS PERIOD. CURRENT PERIOD IS:       6

 USING EXTINCTION WATER CONTENT FROM PREVIOUS STRESS PERIOD. CURRENT PERIOD IS:       6

 USING AIR ENTRY PRESSURE FROM PREVIOUS STRESS PERIOD. CURRENT PERIOD IS:       6

 USING ROOT PRESSURE HEAD FROM PREVIOUS STRESS PERIOD. CURRENT PERIOD IS:       6

 USING ROOT ACTIVITY FROM PREVIOUS STRESS PERIOD. CURRENT PERIOD IS:       6

 PROCESSING AG STRESS PERIOD DATA

 READING AG STRESS PERIOD DATA

 READING IRRIGATION SEGMENT

 READING IRRIGATION WELL

 READING SUPPLEMENTAL WELL

 NO IRRPOND OR REUSING IRRPOND DATA FROM LAST STRESS PERIOD

 END PROCESSING AG STRESS PERIOD DATA OPTIONS
 
 SOLVING FOR HEAD 
                                                   Max.-Head-Change                         Max.-Flux-Residual
  Residual-Control   Outer-Iter.   Inner-Iter.     Column Row Layer    Maximum-Head-Change  Column Row Layer    Maximum-Flux-Residual          L2-NORM 
          0                 1           2             5    8     1       0.1110199238E+00       5    8    1         0.6068909270E+01      0.1423548481E+02
          0                 2           2             5    8     1      -0.1079901682E-01       5    8    1        -0.6068774349E+00      0.1422781480E+01
          0                 3           2             5    8     1       0.7353749182E-03       5    8    1         0.4248156679E-01      0.9953074148E-01
          0                 4           1             5    8     1      -0.2926124767E-04       5    8    1        -0.1737497920E-02      0.4066989663E-02

    ------------------------------------------------
       NWT REQUIRED            4 OUTER ITERATIONS 
       AND A TOTAL OF          7 INNER ITERATIONS.
    ------------------------------------------------

 NO OUTPUT CONTROL FOR STRESS PERIOD    6   TIME STEP    1
 
 SOLVING FOR HEAD 
                                                   Max.-Head-Change                         Max.-Flux-Residual
  Residual-Control   Outer-Iter.   Inner-Iter.     Column Row Layer    Maximum-Head-Change  Column Row Layer    Maximum-Flux-Residual          L2-NORM 
          0                 1           2             5    8     1       0.1056361453E+00       5    8    1         0.5769281442E+01      0.1367752760E+02
          0                 2           2             5    8     1      -0.1027533994E-01       5    8    1        -0.5769159047E+00      0.1368243421E+01
          0                 3           2             5    8     1       0.6997142888E-03       5    8    1         0.4038424692E-01      0.9571525535E-01
          0                 4           1             5    8     1      -0.2784227881E-04       5    8    1        -0.1651717463E-02      0.3911063180E-02

    ------------------------------------------------
       NWT REQUIRED            4 OUTER ITERATIONS 
       AND A TOTAL OF          7 INNER ITERATIONS.
    ------------------------------------------------

 NO OUTPUT CONTROL FOR STRESS PERIOD    6   TIME STEP    2
 
 SOLVING FOR HEAD 
                                                   Max.-Head-Change                         Max.-Flux-Residual
  Residual-Control   Outer-Iter.   Inner-Iter.     Column Row Layer    Maximum-Head-Change  Column Row Layer    Maximum-Flux-Residual          L2-NORM 
          0                 1           2             5    8     1       0.1006053699E+00       5    8    1         0.5489502986E+01      0.1315420449E+02
          0                 2           2             5    8     1      -0.9785998450E-02       5    8    1        -0.5489391579E+00      0.1316206776E+01
          0                 3           2             5    8     1       0.6663917929E-03       5    8    1         0.3842586340E-01      0.9208081677E-01
          0                 4           1             5    8     1      -0.2651634618E-04       5    8    1        -0.1571619518E-02      0.3763014466E-02

    ------------------------------------------------
       NWT REQUIRED            4 OUTER ITERATIONS 
       AND A TOTAL OF          7 INNER ITERATIONS.
    ------------------------------------------------

 NO OUTPUT CONTROL FOR STRESS PERIOD    6   TIME STEP    3
 
 SOLVING FOR HEAD 
                                                   Max.-Head-Change                         Max.-Flux-Residual
  Residual-Control   Outer-Iter.   Inner-Iter.     Column Row Layer    Maximum-Head-Change  Column Row Layer    Maximum-Flux-Residual          L2-NORM 
          0                 1           2             5    8     1       0.9590113273E-01       5    8    1         0.5228074270E+01      0.1266192550E+02
          0                 2           2             5    8     1      -0.3181960830E-01       5    8    1        -0.1761359205E+01      0.4184910777E+01
          0                 3           2             4    7     1       0.2442313761E-01       5    8    1         0.1361857173E+01      0.3332595431E+01
          0                 4           2             4    7     1      -0.3713219050E-01       5    8    1        -0.2106341553E+01      0.5158922765E+01
          0                 5           2             4    7     1       0.3564054534E-01       4    7    1         0.2077331142E+01      0.5111199550E+01
          0                 6           2             4    7     1      -0.5617065417E-01       4    7    1        -0.3364638662E+01      0.8241617475E+01
          0                 7           2             4    7     1       0.5290200146E-01       4    7    1         0.3256342649E+01      0.8014407305E+01
          0                 8           2             4    7     1      -0.8542578989E-01       4    7    1        -0.5403043289E+01      0.1323469839E+02
          0                 9           2             4    7     1       0.4598949671E-01       4    7    1         0.2988536967E+01      0.7361307471E+01
          0                10           2             4    7     1      -0.8124336838E-01       4    7    1        -0.5423750631E+01      0.1328602578E+02
                                                   Max.-Head-Change                         Max.-Flux-Residual
  Residual-Control   Outer-Iter.   Inner-Iter.     Column Row Layer    Maximum-Head-Change  Column Row Layer    Maximum-Flux-Residual          L2-NORM 
          0                11           2             4    7     1      -0.1135546220E-01       5    8    1        -0.7581298855E+00      0.1856984470E+01
          0                12           2             4    7     1      -0.1587044434E-02       5    8    1        -0.1059623968E+00      0.2595407851E+00
          0                13           2             4    7     1      -0.2217900529E-03       5    8    1        -0.1480893566E-01      0.3627201066E-01
          0                14           1             4    7     1      -0.3099302294E-04       5    8    1        -0.2069477737E-02      0.5068795825E-02

    ------------------------------------------------
       NWT REQUIRED           14 OUTER ITERATIONS 
       AND A TOTAL OF         27 INNER ITERATIONS.
    ------------------------------------------------

 NO OUTPUT CONTROL FOR STRESS PERIOD    6   TIME STEP    4
 
 SOLVING FOR HEAD 
                                                   Max.-Head-Change                         Max.-Flux-Residual
  Residual-Control   Outer-Iter.   Inner-Iter.     Column Row Layer    Maximum-Head-Change  Column Row Layer    Maximum-Flux-Residual          L2-NORM 
          0                 1           2             5    8     1       0.9577867563E-01       5    8    1         0.5219868422E+01      0.1269901828E+02
          0                 2           2             5    8     1      -0.9316506809E-02       5    8    1        -0.5219766809E+00      0.1300113325E+01
          0                 3           2             5    8     1       0.6344210147E-03       5    8    1         0.3653847993E-01      0.9094716246E-01
          0                 4           1             5    8     1      -0.2524419955E-04       5    8    1        -0.1494425456E-02      0.3716186781E-02

    ------------------------------------------------
       NWT REQUIRED            4 OUTER ITERATIONS 
       AND A TOTAL OF          7 INNER ITERATIONS.
    ------------------------------------------------

 NO OUTPUT CONTROL FOR STRESS PERIOD    6   TIME STEP    5
 
 SOLVING FOR HEAD 
                                                   Max.-Head-Change                         Max.-Flux-Residual
  Residual-Control   Outer-Iter.   Inner-Iter.     Column Row Layer    Maximum-Head-Change  Column Row Layer    Maximum-Flux-Residual          L2-NORM 
          0                 1           2             5    8     1       0.9140909220E-01       5    8    1         0.4977256973E+01      0.1223583604E+02
          0                 2           2             5    8     1      -0.8891477680E-02       5    8    1        -0.4977163828E+00      0.1223104561E+01
          0                 3           2             5    8     1       0.6054779879E-03       5    8    1         0.3484025032E-01      0.8557706256E-01
          0                 4           1             5    8     1      -0.2409253016E-04       5    8    1        -0.1424967825E-02      0.3497816354E-02

    ------------------------------------------------
       NWT REQUIRED            4 OUTER ITERATIONS 
       AND A TOTAL OF          7 INNER ITERATIONS.
    ------------------------------------------------

 NO OUTPUT CONTROL FOR STRESS PERIOD    6   TIME STEP    6
 
 SOLVING FOR HEAD 
                                                   Max.-Head-Change                         Max.-Flux-Residual
  Residual-Control   Outer-Iter.   Inner-Iter.     Column Row Layer    Maximum-Head-Change  Column Row Layer    Maximum-Flux-Residual          L2-NORM 
          0                 1           2             5    6     1       0.8739960753E-01       5    8    1         0.4750180798E+01      0.1180268861E+02
          0                 2           2             5    6     1      -0.8501470189E-02       5    8    1        -0.4750094808E+00      0.1179865750E+01
          0                 3           2             5    6     1       0.5789198578E-03       5    8    1         0.3325075939E-01      0.8255690805E-01
          0                 4           1             5    6     1      -0.2303570633E-04       5    8    1        -0.1359957590E-02      0.3374493158E-02

    ------------------------------------------------
       NWT REQUIRED            4 OUTER ITERATIONS 
       AND A TOTAL OF          7 INNER ITERATIONS.
    ------------------------------------------------

 NO OUTPUT CONTROL FOR STRESS PERIOD    6   TIME STEP    7
 
 SOLVING FOR HEAD 
                                                   Max.-Head-Change                         Max.-Flux-Residual
  Residual-Control   Outer-Iter.   Inner-Iter.     Column Row Layer    Maximum-Head-Change  Column Row Layer    Maximum-Flux-Residual          L2-NORM 
          0                 1           2             5    6     1       0.8376478073E-01       5    6    1         0.4542323123E+01      0.1139574781E+02
          0                 2           2             5    6     1      -0.8147911336E-02       5    6    1        -0.4542241823E+00      0.1139234675E+01
          0                 3           2             5    6     1       0.5548437128E-03       5    6    1         0.3179578376E-01      0.7971818139E-01
          0                 4           1             5    6     1      -0.2207769549E-04       5    6    1        -0.1300449007E-02      0.3258729978E-02

    ------------------------------------------------
       NWT REQUIRED            4 OUTER ITERATIONS 
       AND A TOTAL OF          7 INNER ITERATIONS.
    ------------------------------------------------

 NO OUTPUT CONTROL FOR STRESS PERIOD    6   TIME STEP    8
 
 SOLVING FOR HEAD 
                                                   Max.-Head-Change                         Max.-Flux-Residual
  Residual-Control   Outer-Iter.   Inner-Iter.     Column Row Layer    Maximum-Head-Change  Column Row Layer    Maximum-Flux-Residual          L2-NORM 
          0                 1           2             5    6     1       0.8034023995E-01       5    6    1         0.4353408677E+01      0.1101282467E+02
          0                 2           2             4    7     1      -0.1869294539E+01       5    6    1        -0.1004353333E+03      0.2459149643E+03
          0                 3           2             4    7     1       0.1272724916E+00       5    6    1         0.7028376828E+01      0.1739446292E+02
          0                 4           2             4    7     1      -0.5064385437E-02       5    6    1        -0.2873557808E+00      0.7355153238E+00
          0                 5           2             7   13     1       0.1480746101E-03       7   13    1         0.8490372273E-02      0.1412716839E-01
          0                 6           1             7   13     1      -0.5889076842E-05       7   13    1        -0.3467939041E-03      0.3803868713E-03

    ------------------------------------------------
       NWT REQUIRED            6 OUTER ITERATIONS 
       AND A TOTAL OF         11 INNER ITERATIONS.
    ------------------------------------------------

 NO OUTPUT CONTROL FOR STRESS PERIOD    6   TIME STEP    9
 
 SOLVING FOR HEAD 
                                                   Max.-Head-Change                         Max.-Flux-Residual
  Residual-Control   Outer-Iter.   Inner-Iter.     Column Row Layer    Maximum-Head-Change  Column Row Layer    Maximum-Flux-Residual          L2-NORM 
          0                 1           2             5    8     1       0.1306408166E+00       5    8    1         0.7139203006E+01      0.1660792417E+02
          0                 2           2             5    8     1      -0.1270752568E-01       5    8    1        -0.7139020028E+00      0.1683176481E+01
          0                 3           2             5    8     1       0.8653379704E-03       5    8    1         0.4997333524E-01      0.1177979554E+00
          0                 4           1             5    8     1      -0.3443259585E-04       5    8    1        -0.2043911450E-02      0.4816446784E-02

    ------------------------------------------------
       NWT REQUIRED            4 OUTER ITERATIONS 
       AND A TOTAL OF          7 INNER ITERATIONS.
    ------------------------------------------------

 NO OUTPUT CONTROL FOR STRESS PERIOD    6   TIME STEP   10
 
 SOLVING FOR HEAD 
                                                   Max.-Head-Change                         Max.-Flux-Residual
  Residual-Control   Outer-Iter.   Inner-Iter.     Column Row Layer    Maximum-Head-Change  Column Row Layer    Maximum-Flux-Residual          L2-NORM 
          0                 1           2             5    8     1       0.1243470295E+00       5    8    1         0.6788868454E+01      0.1597292143E+02
          0                 2           2             5    8     1      -0.1209533606E-01       5    8    1        -0.6788702401E+00      0.1597028070E+01
          0                 3           2             5    8     1       0.8236498900E-03       5    8    1         0.4752109479E-01      0.1117741943E+00
          0                 4           1             5    8     1      -0.3277378926E-04       5    8    1        -0.1943614752E-02      0.4570491900E-02

    ------------------------------------------------
       NWT REQUIRED            4 OUTER ITERATIONS 
       AND A TOTAL OF          7 INNER ITERATIONS.
    ------------------------------------------------

 NO OUTPUT CONTROL FOR STRESS PERIOD    6   TIME STEP   11
 
 SOLVING FOR HEAD 
                                                   Max.-Head-Change                         Max.-Flux-Residual
  Residual-Control   Outer-Iter.   Inner-Iter.     Column Row Layer    Maximum-Head-Change  Column Row Layer    Maximum-Flux-Residual          L2-NORM 
          0                 1           2             5    8     1       0.1184669826E+00       5    8    1         0.6461807156E+01      0.1537966862E+02
          0                 2           2             5    8     1      -0.1152338911E-01       5    8    1        -0.6461655938E+00      0.1537740753E+01
          0                 3           2             5    8     1       0.7847022151E-03       5    8    1         0.4523175452E-01      0.1076267841E+00
          0                 4           1             5    8     1      -0.3122402589E-04       5    8    1        -0.1849980674E-02      0.4400961340E-02

    ------------------------------------------------
       NWT REQUIRED            4 OUTER ITERATIONS 
       AND A TOTAL OF          7 INNER ITERATIONS.
    ------------------------------------------------

 NO OUTPUT CONTROL FOR STRESS PERIOD    6   TIME STEP   12
 
 SOLVING FOR HEAD 
                                                   Max.-Head-Change                         Max.-Flux-Residual
  Residual-Control   Outer-Iter.   Inner-Iter.     Column Row Layer    Maximum-Head-Change  Column Row Layer    Maximum-Flux-Residual          L2-NORM 
          0                 1           2             5    8     1       0.1129695165E+00       5    8    1         0.6156252398E+01      0.1482290910E+02
          0                 2           2             5    8     1      -0.1098865363E-01       5    8    1        -0.6156113864E+00      0.1482097042E+01
          0                 3           2             5    8     1       0.7482885279E-03       5    8    1         0.4309294671E-01      0.1037340940E+00
          0                 4           1             5    8     1      -0.2977509231E-04       5    8    1        -0.1762503380E-02      0.4241935004E-02

    ------------------------------------------------
       NWT REQUIRED            4 OUTER ITERATIONS 
       AND A TOTAL OF          7 INNER ITERATIONS.
    ------------------------------------------------

 NO OUTPUT CONTROL FOR STRESS PERIOD    6   TIME STEP   13
 
 SOLVING FOR HEAD 
                                                   Max.-Head-Change                         Max.-Flux-Residual
  Residual-Control   Outer-Iter.   Inner-Iter.     Column Row Layer    Maximum-Head-Change  Column Row Layer    Maximum-Flux-Residual          L2-NORM 
          0                 1           2             5    8     1       0.1078256889E+00       5    8    1         0.5870565156E+01      0.1429971279E+02
          0                 2           2             4    7     1      -0.1870504446E+01       5    8    1        -0.1005870438E+03      0.2461917973E+03
          0                 3           2             4    7     1       0.1273550033E+00       5    8    1         0.7038931121E+01      0.1741952817E+02
          0                 4           2             4    7     1      -0.5067668033E-02       5    6    1        -0.2877855722E+00      0.7369265810E+00
          0                 5           2             7   13     1       0.1485326354E-03       7   13    1         0.8516798275E-02      0.1418166707E-01
          0                 6           1             7   13     1      -0.5907172013E-05       7   13    1        -0.3478595077E-03      0.3801494768E-03

    ------------------------------------------------
       NWT REQUIRED            6 OUTER ITERATIONS 
       AND A TOTAL OF         11 INNER ITERATIONS.
    ------------------------------------------------

 NO OUTPUT CONTROL FOR STRESS PERIOD    6   TIME STEP   14
 
 SOLVING FOR HEAD 
                                                   Max.-Head-Change                         Max.-Flux-Residual
  Residual-Control   Outer-Iter.   Inner-Iter.     Column Row Layer    Maximum-Head-Change  Column Row Layer    Maximum-Flux-Residual          L2-NORM 
          0                 1           2             5    8     1       0.1571359813E+00       5    8    1         0.8590707706E+01      0.1981802127E+02
          0                 2           2             5    8     1      -0.1528466753E-01       5    8    1        -0.8590444589E+00      0.2000689404E+01
          0                 3           2             5    8     1       0.1040832902E-02       5    8    1         0.6013338735E-01      0.1400342777E+00
          0                 4           1             5    8     1      -0.4141569810E-04       5    8    1        -0.2459457806E-02      0.5726505211E-02

    ------------------------------------------------
       NWT REQUIRED            4 OUTER ITERATIONS 
       AND A TOTAL OF          7 INNER ITERATIONS.
    ------------------------------------------------

 NO OUTPUT CONTROL FOR STRESS PERIOD    6   TIME STEP   15
 
 SOLVING FOR HEAD 
                                                   Max.-Head-Change                         Max.-Flux-Residual
  Residual-Control   Outer-Iter.   Inner-Iter.     Column Row Layer    Maximum-Head-Change  Column Row Layer    Maximum-Flux-Residual          L2-NORM 
          0                 1           2             5    8     1       0.1495028274E+00       5    8    1         0.8165673480E+01      0.1905546552E+02
          0                 2           2             5    8     1      -0.1454321044E-01       5    8    1        -0.8164826679E+00      0.1905334905E+01
          0                 3           2             5    8     1       0.9913199489E-03       5    8    1         0.5722032424E-01      0.1333706597E+00
          0                 4           1             5    8     1      -0.3944553283E-04       5    8    1        -0.2340313464E-02      0.5454251909E-02

    ------------------------------------------------
       NWT REQUIRED            4 OUTER ITERATIONS 
       AND A TOTAL OF          7 INNER ITERATIONS.
    ------------------------------------------------

 NO OUTPUT CONTROL FOR STRESS PERIOD    6   TIME STEP   16
 
 SOLVING FOR HEAD 
                                                   Max.-Head-Change                         Max.-Flux-Residual
  Residual-Control   Outer-Iter.   Inner-Iter.     Column Row Layer    Maximum-Head-Change  Column Row Layer    Maximum-Flux-Residual          L2-NORM 
          0                 1           2             5    8     1       0.1423739581E+00       5    8    1         0.7769013802E+01      0.1834250113E+02
          0                 2           2             5    8     1      -0.1383228836E-01       5    8    1        -0.7758285009E+00      0.1833975449E+01
          0                 3           2             5    8     1       0.9419304211E-03       5    8    1         0.5430821064E-01      0.1283700811E+00
          0                 4           1             5    8     1      -0.3748027994E-04       5    8    1        -0.2221208031E-02      0.5249816229E-02

    ------------------------------------------------
       NWT REQUIRED            4 OUTER ITERATIONS 
       AND A TOTAL OF          7 INNER ITERATIONS.
    ------------------------------------------------

 NO OUTPUT CONTROL FOR STRESS PERIOD    6   TIME STEP   17
 
 SOLVING FOR HEAD 
                                                   Max.-Head-Change                         Max.-Flux-Residual
  Residual-Control   Outer-Iter.   Inner-Iter.     Column Row Layer    Maximum-Head-Change  Column Row Layer    Maximum-Flux-Residual          L2-NORM 
          0                 1           2             5    8     1       0.1357418581E+00       5    8    1         0.7399434682E+01      0.1767351873E+02
          0                 2           2             5    8     1      -0.1320371161E-01       5    8    1        -0.7399247744E+00      0.1767197260E+01
          0                 3           2             5    8     1       0.8991264480E-03       5    8    1         0.5179493342E-01      0.1236968825E+00
          0                 4           1             5    8     1      -0.3577707082E-04       5    8    1        -0.2118414912E-02      0.5058726630E-02

    ------------------------------------------------
       NWT REQUIRED            4 OUTER ITERATIONS 
       AND A TOTAL OF          7 INNER ITERATIONS.
    ------------------------------------------------

 NO OUTPUT CONTROL FOR STRESS PERIOD    6   TIME STEP   18
 
 SOLVING FOR HEAD 
                                                   Max.-Head-Change                         Max.-Flux-Residual
  Residual-Control   Outer-Iter.   Inner-Iter.     Column Row Layer    Maximum-Head-Change  Column Row Layer    Maximum-Flux-Residual          L2-NORM 
          0                 1           2             5    8     1       0.1295202906E+00       5    8    1         0.7053922313E+01      0.1704495433E+02
          0                 2           2             5    8     1      -0.1266682243E-01       5    8    1        -0.7091349259E+00      0.1712385881E+01
          0                 3           2             5    8     1       0.7743941214E-03       5    8    1         0.4464845242E-01      0.1093795788E+00
          0                 4           1             5    8     1      -0.7967603776E-04       5    8    1        -0.4669158881E-02      0.1120745485E-01

    ------------------------------------------------
       NWT REQUIRED            4 OUTER ITERATIONS 
       AND A TOTAL OF          7 INNER ITERATIONS.
    ------------------------------------------------

 NO OUTPUT CONTROL FOR STRESS PERIOD    6   TIME STEP   19
 
 SOLVING FOR HEAD 
                                                   Max.-Head-Change                         Max.-Flux-Residual
  Residual-Control   Outer-Iter.   Inner-Iter.     Column Row Layer    Maximum-Head-Change  Column Row Layer    Maximum-Flux-Residual          L2-NORM 
          0                 1           2             5    8     1       0.1237007048E+00       5    8    1         0.6730964347E+01      0.1645435725E+02
          0                 2           2             4    7     1      -0.1871833004E+01       5    8    1        -0.1006730803E+03      0.2463867193E+03
          0                 3           2             4    7     1       0.1274172830E+00       5    8    1         0.7044978593E+01      0.1738854843E+02
          0                 4           2             4    7     1      -0.5070145601E-02       5    6    1        -0.2880342990E+00      0.7327159147E+00
          0                 5           2             7   13     1       0.1497019374E-03       7   13    1         0.8582541577E-02      0.1384916364E-01
          0                 6           1             7   13     1      -0.5953368742E-05       7   13    1        -0.3505645927E-03      0.3821277316E-03

    ------------------------------------------------
       NWT REQUIRED            6 OUTER ITERATIONS 
       AND A TOTAL OF         11 INNER ITERATIONS.
    ------------------------------------------------

 NO OUTPUT CONTROL FOR STRESS PERIOD    6   TIME STEP   20
 
 SOLVING FOR HEAD 
                                                   Max.-Head-Change                         Max.-Flux-Residual
  Residual-Control   Outer-Iter.   Inner-Iter.     Column Row Layer    Maximum-Head-Change  Column Row Layer    Maximum-Flux-Residual          L2-NORM 
          0                 1           2             5    8     1       0.1723905150E+00       5    8    1         0.9415815176E+01      0.2187231348E+02
          0                 2           2             5    8     1      -0.1676835405E-01       5    8    1        -0.9415531821E+00      0.2204450340E+01
          0                 3           2             5    8     1       0.1141866763E-02       5    8    1         0.6590902012E-01      0.1543031533E+00
          0                 4           1             5    8     1      -0.4543592846E-04       5    8    1        -0.2695681427E-02      0.6310440764E-02

    ------------------------------------------------
       NWT REQUIRED            4 OUTER ITERATIONS 
       AND A TOTAL OF          7 INNER ITERATIONS.
    ------------------------------------------------

 NO OUTPUT CONTROL FOR STRESS PERIOD    6   TIME STEP   21
 
 SOLVING FOR HEAD 
                                                   Max.-Head-Change                         Max.-Flux-Residual
  Residual-Control   Outer-Iter.   Inner-Iter.     Column Row Layer    Maximum-Head-Change  Column Row Layer    Maximum-Flux-Residual          L2-NORM 
          0                 1           2             5    8     1       0.1641678170E+00       5    8    1         0.8958348742E+01      0.2105082157E+02
          0                 2           2             5    8     1      -0.1596867258E-01       5    8    1        -0.8958086187E+00      0.2104907618E+01
          0                 3           2             5    8     1       0.1087411118E-02       5    8    1         0.6270687912E-01      0.1473380915E+00
          0                 4           1             5    8     1      -0.4326908910E-04       5    8    1        -0.2564713776E-02      0.6025735189E-02

    ------------------------------------------------
       NWT REQUIRED            4 OUTER ITERATIONS 
       AND A TOTAL OF          7 INNER ITERATIONS.
    ------------------------------------------------

 NO OUTPUT CONTROL FOR STRESS PERIOD    6   TIME STEP   22
 
 SOLVING FOR HEAD 
                                                   Max.-Head-Change                         Max.-Flux-Residual
  Residual-Control   Outer-Iter.   Inner-Iter.     Column Row Layer    Maximum-Head-Change  Column Row Layer    Maximum-Flux-Residual          L2-NORM 
          0                 1           2             5    8     1       0.1564814772E+00       5    8    1         0.8531047670E+01      0.2028162485E+02
          0                 2           2             5    8     1      -0.1522102891E-01       5    8    1        -0.8530804159E+00      0.2028000413E+01
          0                 3           2             5    8     1       0.1036499087E-02       5    8    1         0.5971588562E-01      0.1419554802E+00
          0                 4           1             5    8     1      -0.4124325284E-04       5    8    1        -0.2442382061E-02      0.5805645371E-02

    ------------------------------------------------
       NWT REQUIRED            4 OUTER ITERATIONS 
       AND A TOTAL OF          7 INNER ITERATIONS.
    ------------------------------------------------

 NO OUTPUT CONTROL FOR STRESS PERIOD    6   TIME STEP   23
 
 SOLVING FOR HEAD 
                                                   Max.-Head-Change                         Max.-Flux-Residual
  Residual-Control   Outer-Iter.   Inner-Iter.     Column Row Layer    Maximum-Head-Change  Column Row Layer    Maximum-Flux-Residual          L2-NORM 
          0                 1           2             5    8     1       0.1492914197E+00       5    8    1         0.8131632794E+01      0.1955904882E+02
          0                 2           2             5    8     1      -0.1452165702E-01       5    8    1        -0.8131406415E+00      0.1955770769E+01
          0                 3           2             5    8     1       0.9888742061E-03       5    8    1         0.5692008364E-01      0.1369001466E+00
          0                 4           1             5    8     1      -0.3934821581E-04       5    8    1        -0.2328033685E-02      0.5598938866E-02

    ------------------------------------------------
       NWT REQUIRED            4 OUTER ITERATIONS 
       AND A TOTAL OF          7 INNER ITERATIONS.
    ------------------------------------------------

 NO OUTPUT CONTROL FOR STRESS PERIOD    6   TIME STEP   24
 
 SOLVING FOR HEAD 
                                                   Max.-Head-Change                         Max.-Flux-Residual
  Residual-Control   Outer-Iter.   Inner-Iter.     Column Row Layer    Maximum-Head-Change  Column Row Layer    Maximum-Flux-Residual          L2-NORM 
          0                 1           2             5    8     1       0.1425605430E+00       5    8    1         0.7758003669E+01      0.1887944745E+02
          0                 2           2             5    8     1      -0.1393624258E-01       5    8    1        -0.7795950984E+00      0.1896016651E+01
          0                 3           2             5    8     1       0.8597203543E-03       5    8    1         0.4951753427E-01      0.1220197433E+00
          0                 4           1             5    8     1      -0.8977934342E-04       5    8    1        -0.5258572388E-02      0.1262962657E-01

    ------------------------------------------------
       NWT REQUIRED            4 OUTER ITERATIONS 
       AND A TOTAL OF          7 INNER ITERATIONS.
    ------------------------------------------------

 NO OUTPUT CONTROL FOR STRESS PERIOD    6   TIME STEP   25
 
 SOLVING FOR HEAD 
                                                   Max.-Head-Change                         Max.-Flux-Residual
  Residual-Control   Outer-Iter.   Inner-Iter.     Column Row Layer    Maximum-Head-Change  Column Row Layer    Maximum-Flux-Residual          L2-NORM 
          0                 1           2             5    8     1       0.1362613499E+00       5    8    1         0.7408594440E+01      0.1824023503E+02
          0                 2           2             4    7     1      -0.1873138320E+01       5    8    1        -0.1007408399E+03      0.2465529812E+03
          0                 3           2             4    7     1       0.1275343651E+00       5    8    1         0.7049739130E+01      0.1739922551E+02
          0                 4           2             4    7     1      -0.5074804928E-02       5    6    1        -0.2882308665E+00      0.7331435065E+00
          0                 5           2             7   13     1       0.1505380068E-03       7   13    1         0.8630413977E-02      0.1386088568E-01
          0                 6           1             7   13     1      -0.5986919160E-05       7   13    1        -0.3525416744E-03      0.3831570508E-03

    ------------------------------------------------
       NWT REQUIRED            6 OUTER ITERATIONS 
       AND A TOTAL OF         11 INNER ITERATIONS.
    ------------------------------------------------

 NO OUTPUT CONTROL FOR STRESS PERIOD    6   TIME STEP   26
 
 SOLVING FOR HEAD 
                                                   Max.-Head-Change                         Max.-Flux-Residual
  Residual-Control   Outer-Iter.   Inner-Iter.     Column Row Layer    Maximum-Head-Change  Column Row Layer    Maximum-Flux-Residual          L2-NORM 
          0                 1           2             5    8     1       0.1844823982E+00       5    8    1         0.1006755918E+02      0.2356568569E+02
          0                 2           2             5    8     1      -0.1794462800E-01       5    8    1        -0.1006723385E+01      0.2372614912E+01
          0                 3           2             5    8     1       0.1221967244E-02       5    8    1         0.7047097548E-01      0.1660772481E+00
          0                 4           1             5    8     1      -0.4862319889E-04       5    8    1        -0.2882265487E-02      0.6792137890E-02

    ------------------------------------------------
       NWT REQUIRED            4 OUTER ITERATIONS 
       AND A TOTAL OF          7 INNER ITERATIONS.
    ------------------------------------------------

 NO OUTPUT CONTROL FOR STRESS PERIOD    6   TIME STEP   27
 
 SOLVING FOR HEAD 
                                                   Max.-Head-Change                         Max.-Flux-Residual
  Residual-Control   Outer-Iter.   Inner-Iter.     Column Row Layer    Maximum-Head-Change  Column Row Layer    Maximum-Flux-Residual          L2-NORM 
          0                 1           2             5    8     1       0.1758331022E+00       5    8    1         0.9586653972E+01      0.2270269889E+02
          0                 2           2             5    8     1      -0.1710333022E-01       5    8    1        -0.9586352199E+00      0.2270104053E+01
          0                 3           2             5    8     1       0.1164677650E-02       5    8    1         0.6710478020E-01      0.1589037970E+00
          0                 4           1             5    8     1      -0.4634359423E-04       5    8    1        -0.2744588017E-02      0.6498880645E-02

    ------------------------------------------------
       NWT REQUIRED            4 OUTER ITERATIONS 
       AND A TOTAL OF          7 INNER ITERATIONS.
    ------------------------------------------------

 NO OUTPUT CONTROL FOR STRESS PERIOD    6   TIME STEP   28
 
 SOLVING FOR HEAD 
                                                   Max.-Head-Change                         Max.-Flux-Residual
  Residual-Control   Outer-Iter.   Inner-Iter.     Column Row Layer    Maximum-Head-Change  Column Row Layer    Maximum-Flux-Residual          L2-NORM 
          0                 1           2             5    8     1       0.1677435190E+00       5    8    1         0.9137204388E+01      0.2189371782E+02
          0                 2           2             5    8     1      -0.1631646570E-01       5    8    1        -0.9136924269E+00      0.2189225908E+01
          0                 3           2             5    8     1       0.1111094787E-02       5    8    1         0.6395876284E-01      0.1532429367E+00
          0                 4           1             5    8     1      -0.4421148299E-04       5    8    1        -0.2615915811E-02      0.6267426953E-02

    ------------------------------------------------
       NWT REQUIRED            4 OUTER ITERATIONS 
       AND A TOTAL OF          7 INNER ITERATIONS.
    ------------------------------------------------

 NO OUTPUT CONTROL FOR STRESS PERIOD    6   TIME STEP   29
 
 SOLVING FOR HEAD 
                                                   Max.-Head-Change                         Max.-Flux-Residual
  Residual-Control   Outer-Iter.   Inner-Iter.     Column Row Layer    Maximum-Head-Change  Column Row Layer    Maximum-Flux-Residual          L2-NORM 
          0                 1           2             5    8     1       0.1601701827E+00       5    8    1         0.8716837309E+01      0.2113249014E+02
          0                 2           2             5    8     1      -0.1557981389E-01       5    8    1        -0.8716576135E+00      0.2113142510E+01
          0                 3           2             5    8     1       0.1060931256E-02       5    8    1         0.6101630638E-01      0.1479195983E+00
          0                 4           1             5    8     1      -0.4221543071E-04       5    8    1        -0.2495569257E-02      0.6049836534E-02

    ------------------------------------------------
       NWT REQUIRED            4 OUTER ITERATIONS 
       AND A TOTAL OF          7 INNER ITERATIONS.
    ------------------------------------------------

 NO OUTPUT CONTROL FOR STRESS PERIOD    6   TIME STEP   30



 STREAM LISTING     PERIOD      6   STEP       30

 LAYER ROW COL. STREAM  RCH.  FLOW INTO     FLOW TO   FLOW OUT OF   OVRLND.     DIRECT     STREAM       STREAM     STREAM     STREAM   STREAMBED  STREAMBED
                SEG.NO.  NO.  STRM. RCH.    AQUIFER    STRM. RCH.    RUNOFF     PRECIP       ET          HEAD       DEPTH      WIDTH   CONDCTNC.   GRADIENT

   1    1    1     1     1    6.9266E+01  4.0352E-01   6.8863E+01  0.000E+00  0.000E+00  0.000E+00  1.09468E+03  1.634E+00  1.935E+01  8.707E-02  1.545E+00
   1    2    2     1     2    6.8863E+01  6.2503E-01   6.8238E+01  0.000E+00  0.000E+00  0.000E+00  1.08969E+03  1.628E+00  1.929E+01  1.350E-01  1.543E+00
   1    3    3     1     3    6.8238E+01  5.3316E-01   6.7704E+01  0.000E+00  0.000E+00  0.000E+00  1.08404E+03  1.622E+00  1.923E+01  1.154E-01  1.541E+00
   1    3    4     1     4    6.7704E+01  4.9106E-01   6.7213E+01  0.000E+00  0.000E+00  0.000E+00  1.07902E+03  1.616E+00  1.917E+01  1.064E-01  1.539E+00
   1    4    5     2     1    6.5213E+01  4.0112E-01   6.4812E+01  0.000E+00  0.000E+00  0.000E+00  1.07408E+03  2.143E+00  1.200E+01  7.800E-02  1.714E+00
   1    5    6     2     2    6.4812E+01  3.0814E-01   6.4504E+01  0.000E+00  0.000E+00  0.000E+00  1.06865E+03  2.136E+00  1.200E+01  6.000E-02  1.712E+00
   1    6    6     2     3    6.4504E+01  3.0777E-01   6.4196E+01  0.000E+00  0.000E+00  0.000E+00  1.06392E+03  2.129E+00  1.200E+01  6.000E-02  1.710E+00
   1    7    6     2     4    6.4196E+01  3.0740E-01   6.3889E+01  0.000E+00  0.000E+00  0.000E+00  1.05920E+03  2.123E+00  1.200E+01  6.000E-02  1.708E+00
   1    8    6     2     5    6.3889E+01  3.0704E-01   6.3582E+01  0.000E+00  0.000E+00  0.000E+00  1.05448E+03  2.117E+00  1.200E+01  6.000E-02  1.706E+00
   1    3    5     3     1    2.0000E+00  2.8252E-01   1.7175E+00  0.000E+00  0.000E+00  0.000E+00  1.07555E+03  1.909E+00  9.636E+00  7.227E-02  1.955E+00
   1    3    6     3     2    1.7175E+00  2.4905E-01   1.4684E+00  0.000E+00  0.000E+00  0.000E+00  1.07264E+03  1.727E+00  8.909E+00  6.682E-02  1.864E+00
   1    3    7     3     3    1.4684E+00  1.9718E-01   1.2712E+00  0.000E+00  0.000E+00  0.000E+00  1.06987E+03  1.555E+00  8.218E+00  5.547E-02  1.777E+00
   1    4    8     3     4    1.2712E+00  2.2567E-01   1.0456E+00  0.000E+00  0.000E+00  0.000E+00  1.06682E+03  1.364E+00  7.455E+00  6.709E-02  1.682E+00
   1    5    8     3     5    1.0456E+00  1.5790E-01   8.8768E-01  0.000E+00  0.000E+00  0.000E+00  1.06362E+03  1.164E+00  6.655E+00  4.991E-02  1.582E+00
   1    6    8     3     6    8.8768E-01  5.5980E-02   8.3170E-01  0.000E+00  0.000E+00  0.000E+00  1.06158E+03  1.036E+00  6.145E+00  1.844E-02  1.518E+00
   1    5   10     4     1    1.0000E+01  9.0919E-02   9.9091E+00  0.000E+00  0.000E+00  0.000E+00  1.07836E+03  6.368E-01  1.000E+01  2.500E-02  1.212E+00
   1    5    9     4     2    9.9091E+00  1.8158E-01   9.7275E+00  0.000E+00  0.000E+00  0.000E+00  1.07154E+03  6.315E-01  1.000E+01  5.000E-02  1.211E+00
   1    6    8     4     3    9.7275E+00  1.2689E-01   9.6006E+00  0.000E+00  0.000E+00  0.000E+00  1.06381E+03  6.256E-01  1.000E+01  3.500E-02  1.209E+00
   1    6    8     5     1    1.0432E+01  2.2686E-01   1.0205E+01  0.000E+00  0.000E+00  0.000E+00  1.05868E+03  6.790E-01  1.542E+01  6.166E-02  1.226E+00
   1    7    7     5     2    1.0205E+01  2.7894E-01   9.9265E+00  0.000E+00  0.000E+00  0.000E+00  1.05417E+03  6.732E-01  1.519E+01  7.594E-02  1.224E+00
   1    8    7     5     3    9.9265E+00  1.9221E-01   9.7343E+00  0.000E+00  0.000E+00  0.000E+00  1.04992E+03  6.676E-01  1.497E+01  5.241E-02  1.223E+00
   1    8    6     5     4    9.7343E+00  1.3577E-01   9.5985E+00  0.000E+00  0.000E+00  0.000E+00  1.04691E+03  6.637E-01  1.482E+01  3.706E-02  1.221E+00
   1    9    6     6     1    7.3180E+01  3.1938E-01   7.2861E+01  0.000E+00  0.000E+00  0.000E+00  1.04505E+03  2.323E+00  1.200E+01  6.000E-02  1.774E+00
   1   10    7     6     2    7.2861E+01  3.1901E-01   7.2542E+01  0.000E+00  0.000E+00  0.000E+00  1.04050E+03  2.317E+00  1.200E+01  6.000E-02  1.772E+00
   1   11    7     6     3    7.2542E+01  3.1864E-01   7.2223E+01  0.000E+00  0.000E+00  0.000E+00  1.03595E+03  2.311E+00  1.200E+01  6.000E-02  1.770E+00
   1   12    7     6     4    7.2223E+01  3.1828E-01   7.1905E+01  0.000E+00  0.000E+00  0.000E+00  1.03140E+03  2.305E+00  1.200E+01  6.000E-02  1.768E+00
   1   13    7     6     5    7.1905E+01  2.5520E-02   7.1880E+01  0.000E+00  0.000E+00  0.000E+00  1.02821E+03  2.301E+00  1.200E+01  2.400E-02  3.544E-01
   1   14    9     7     1    1.5000E+02  1.3359E+00   1.4866E+02  0.000E+00  0.000E+00  0.000E+00  1.03987E+03  2.288E+00  5.529E+01  5.593E-01  7.962E-01
   1   13    8     7     2    1.4866E+02  1.8218E+00   1.4684E+02  0.000E+00  0.000E+00  0.000E+00  1.03478E+03  2.279E+00  5.526E+01  6.148E-01  9.878E-01
   1   13    7     7     3    1.4684E+02  1.4201E+00   1.4542E+02  0.000E+00  0.000E+00  0.000E+00  1.02969E+03  2.271E+00  5.522E+01  5.585E-01  8.476E-01
   1   13    6     8     1    2.1730E+02  1.0564E+00   2.1625E+02  0.000E+00  0.000E+00  0.000E+00  1.02511E+03  3.234E+00  4.689E+01  4.778E-01  7.369E-01
   1   13    5     8     2    2.1625E+02  2.3426E-01   2.1601E+02  0.000E+00  0.000E+00  0.000E+00  1.01886E+03  3.230E+00  4.684E+01  4.773E-01  1.636E-01
   1   13    4     8     3    2.1601E+02 -2.1917E+00   2.1820E+02  0.000E+00  0.000E+00  0.000E+00  1.01261E+03  3.236E+00  4.692E+01  4.781E+00 -1.528E-01
   1   13    3     8     4    2.1820E+02 -3.3796E+00   2.2158E+02  0.000E+00  0.000E+00  0.000E+00  1.00638E+03  3.251E+00  4.714E+01  4.804E+00 -2.345E-01
   1   13    2     8     5    2.2158E+02 -2.3551E+00   2.2394E+02  0.000E+00  0.000E+00  0.000E+00  1.00014E+03  3.267E+00  4.737E+01  4.828E+00 -1.626E-01
   1   13    1     8     6    2.2394E+02 -1.8090E+00   2.2575E+02  0.000E+00  0.000E+00  0.000E+00  9.95154E+02  3.279E+00  4.754E+01  2.907E+00 -2.075E-01
   1    8    6     9     1    0.0000E+00  0.0000E+00   0.0000E+00  0.000E+00  0.000E+00  0.000E+00  1.07875E+03  0.000E+00  4.000E+00  0.000E+00  1.000E+00
   1    8    5     9     2    0.0000E+00  0.0000E+00   0.0000E+00  0.000E+00  0.000E+00  0.000E+00  1.07825E+03  0.000E+00  4.000E+00  0.000E+00  1.000E+00





UNSATURATED ZONE PACKAGE VOLUMETRIC BUDGET FOR  TIME STEP    30 STRESS PERIOD    6
  ------------------------------------------------------------------------------



     CUMULATIVE VOLUMES      L**3       RATES FOR THIS TIME STEP      L**3/T
     ------------------                 ------------------------

           IN:                                      IN:
           ---                                      ---
        INFILTRATION =   472030962.1679          INFILTRATION =           0.8475

          OUT:                                     OUT:
          ----                                     ----
              UZF ET =    40494640.0072                UZF ET =           8.3363
        UZF RECHARGE =       73224.0000          UZF RECHARGE =       0.0000E+00

            IN - OUT =   431463098.1607              IN - OUT =          -7.4888

          STORAGE:                                 STORAGE:
          --------                                 --------
      STORAGE CHANGE =   431954532.2200        STORAGE CHANGE =          -7.4888

 PERCENT DISCREPANCY IS DIFFERENCE BETWEEN IN-OUT MINUS CHANGE IN STORAGE
 DIVIDED BY THE AVERAGE OF IN AND OUT TIMES 100

 PERCENT DISCREPANCY =          -0.03     PERCENT DISCREPANCY =           0.00






1
  VOLUMETRIC BUDGET FOR AGRICULTURAL FIELDS AT  END OF TIME STEP   30, STRESS PERIOD   6
  ------------------------------------------------------------------------------

     CUMULATIVE VOLUMES      L**3       RATES FOR THIS TIME STEP      L**3/T
     ------------------                 ------------------------

           IN:                                      IN:
           ---                                      ---
               AG WELLS  =   424971456.0000                 AG WELLS  =           0.0000
      DIVERSION SEGMENTS =    35853436.0000        DIVERSION SEGMENTS =           0.0000
       IRRIGATION PONDS  =           0.0000         IRRIGATION PONDS  =           0.0000
           GW IRRIGATION =           0.0000             GW IRRIGATION =           0.0000
           SW IRRIGATION =           0.0000             SW IRRIGATION =           0.0000
        SYSTEM LOSSES GW =           0.0000          SYSTEM LOSSES GW =           0.0000
        SYSTEM LOSSES SW =           0.0000          SYSTEM LOSSES SW =           0.0000

                TOTAL IN =   460824896.0000                  TOTAL IN =           0.0000

          OUT:                                     OUT:
          ----                                     ----
               AG WELLS  =           0.0000                 AG WELLS  =           0.0000
      DIVERSION SEGMENTS =           0.0000        DIVERSION SEGMENTS =           0.0000
       IRRIGATION PONDS  =           0.0000         IRRIGATION PONDS  =           0.0000
           GW IRRIGATION =   424971456.0000             GW IRRIGATION =           0.0000
           SW IRRIGATION =    35854152.0000             SW IRRIGATION =           0.0000
        SYSTEM LOSSES GW =           0.0000          SYSTEM LOSSES GW =           0.0000
        SYSTEM LOSSES SW =           0.0000          SYSTEM LOSSES SW =           0.0000

               TOTAL OUT =   460825600.0000                 TOTAL OUT =           0.0000

                IN - OUT =        -704.0000                  IN - OUT =           0.0000

     PERCENT DISCREPANCY =          -0.00         PERCENT DISCREPANCY =           0.00



1
  VOLUMETRIC BUDGET FOR ENTIRE MODEL AT END OF TIME STEP   30, STRESS PERIOD   6
  ------------------------------------------------------------------------------

     CUMULATIVE VOLUMES      L**3       RATES FOR THIS TIME STEP      L**3/T
     ------------------                 ------------------------

           IN:                                      IN:
           ---                                      ---
             STORAGE     =   548592128.0000               STORAGE     =          42.8379
       CONSTANT HEAD     =           0.0000         CONSTANT HEAD     =           0.0000
     HEAD DEP BOUNDS     =     3781788.7500       HEAD DEP BOUNDS     =           0.2858
      STREAM LEAKAGE     =   160927984.0000        STREAM LEAKAGE     =          13.2550
        UZF RECHARGE     =       73223.9531          UZF RECHARGE     =           0.0000
               GW ET     =           0.0000                 GW ET     =           0.0000
     SURFACE LEAKAGE     =           0.0000       SURFACE LEAKAGE     =           0.0000
           AG WELLS      =           0.0000             AG WELLS      =           0.0000

                TOTAL IN =   713375104.0000                  TOTAL IN =          56.3786

          OUT:                                     OUT:
          ----                                     ----
             STORAGE     =   145605760.0000               STORAGE     =          45.9769
       CONSTANT HEAD     =           0.0000         CONSTANT HEAD     =           0.0000
     HEAD DEP BOUNDS     =     3858133.5000       HEAD DEP BOUNDS     =           0.2955
      STREAM LEAKAGE     =   138275024.0000        STREAM LEAKAGE     =           9.7354
        UZF RECHARGE     =           0.0000          UZF RECHARGE     =           0.0000
               GW ET     =      668481.6250                 GW ET     =           0.3709
     SURFACE LEAKAGE     =           0.0000       SURFACE LEAKAGE     =           0.0000
           AG WELLS      =   424971456.0000             AG WELLS      =           0.0000

               TOTAL OUT =   713378816.0000                 TOTAL OUT =          56.3786

                IN - OUT =       -3712.0000                  IN - OUT =       1.5259E-05

     PERCENT DISCREPANCY =          -0.00         PERCENT DISCREPANCY =           0.00






         TIME SUMMARY AT END OF TIME STEP   30 IN STRESS PERIOD    6
                    SECONDS     MINUTES      HOURS       DAYS        YEARS
                    -----------------------------------------------------------
   TIME STEP LENGTH  87667.      1461.1      24.352      1.0147     2.77799E-03
 STRESS PERIOD TIME 2.63000E+06  43833.      730.56      30.440     8.33397E-02
         TOTAL TIME 1.32364E+07 2.20607E+05  3676.8      153.20     0.41944    
1
1
                            STRESS PERIOD NO.    7, LENGTH =   2630000.    
                            -----------------------------------------------

                              NUMBER OF TIME STEPS =    30

                               MULTIPLIER FOR DELT =     1.000

                            INITIAL TIME STEP SIZE =   87666.66    

 REUSING NON-PARAMETER GHB CELLS FROM LAST STRESS PERIOD

      2 GHB CELLS

 REUSING STREAM SEGMENT DATA FROM LAST STRESS PERIOD



            AREAL INFILTRATION RATE
 READING ON UNIT   19 WITH FORMAT: (FREE)              

            1           2           3           4           5           6           7           8           9          10
 ........................................................................................................................
   1   1.0000E-10  2.0000E-10   0.000       0.000       0.000       0.000       0.000       0.000       0.000       0.000    
   2   2.0000E-10  1.0000E-10  2.0000E-10   0.000       0.000      8.0000E-10  8.0000E-10  5.0000E-10   0.000       0.000    
   3    0.000      5.0000E-10  1.0000E-10  1.0000E-10  8.0000E-10  8.0000E-10  5.0000E-10  5.0000E-10   0.000       0.000    
   4   8.0000E-10  5.0000E-10  1.0000E-10  1.0000E-10  1.0000E-10  1.0000E-10  1.0000E-10  1.0000E-10  2.0000E-10   0.000    
   5   8.0000E-10  5.0000E-10  1.0000E-10  1.0000E-10  1.0000E-10  1.0000E-10  1.0000E-10  1.0000E-10  1.0000E-10  1.0000E-10
   6   8.0000E-10  5.0000E-10  5.0000E-10  2.0000E-10  2.0000E-10  1.0000E-10  1.0000E-10  1.0000E-10  1.0000E-10  5.0000E-10
   7   8.0000E-10  5.0000E-10  5.0000E-10  2.0000E-10  2.0000E-10  1.0000E-10  1.0000E-10  2.0000E-10  2.0000E-10   0.000    
   8    0.000      5.0000E-10  5.0000E-10  2.0000E-10  2.0000E-10  1.0000E-10  1.0000E-10  2.0000E-10  5.0000E-10   0.000    
   9    0.000      5.0000E-10  5.0000E-10  2.0000E-10  2.0000E-10  1.0000E-10  1.0000E-10  2.0000E-10  5.0000E-10   0.000    
  10    0.000      5.0000E-10  5.0000E-10  2.0000E-10  2.0000E-10  1.0000E-10  1.0000E-10  2.0000E-10  5.0000E-10  8.0000E-10
  11    0.000      1.0000E-10  1.0000E-10  1.0000E-10  1.0000E-10  1.0000E-10  1.0000E-10  2.0000E-10  5.0000E-10   0.000    
  12   1.0000E-10  1.0000E-10  1.0000E-10  1.0000E-10  1.0000E-10  1.0000E-10  1.0000E-10  1.0000E-10  2.0000E-10   0.000    
  13   1.0000E-10  1.0000E-10  2.0000E-10  2.0000E-10  2.0000E-10  2.0000E-10  2.0000E-10  1.0000E-10  1.0000E-10   0.000    
  14    0.000      2.0000E-10  5.0000E-10  5.0000E-10  5.0000E-10  5.0000E-10  5.0000E-10  2.0000E-10  1.0000E-10   0.000    
  15    0.000       0.000      8.0000E-10  8.0000E-10  8.0000E-10  8.0000E-10   0.000       0.000       0.000       0.000    

                  ET RATE =  1.500000E-07

 USING ET EXTINCTION DEPTH FROM PREVIOUS STRESS PERIOD. CURRENT PERIOD IS:       7

 USING EXTINCTION WATER CONTENT FROM PREVIOUS STRESS PERIOD. CURRENT PERIOD IS:       7

 USING AIR ENTRY PRESSURE FROM PREVIOUS STRESS PERIOD. CURRENT PERIOD IS:       7

 USING ROOT PRESSURE HEAD FROM PREVIOUS STRESS PERIOD. CURRENT PERIOD IS:       7

 USING ROOT ACTIVITY FROM PREVIOUS STRESS PERIOD. CURRENT PERIOD IS:       7

 PROCESSING AG STRESS PERIOD DATA

 READING AG STRESS PERIOD DATA

 READING IRRIGATION SEGMENT

 READING IRRIGATION WELL

 READING SUPPLEMENTAL WELL

 NO IRRPOND OR REUSING IRRPOND DATA FROM LAST STRESS PERIOD

 END PROCESSING AG STRESS PERIOD DATA OPTIONS
 
 SOLVING FOR HEAD 
                                                   Max.-Head-Change                         Max.-Flux-Residual
  Residual-Control   Outer-Iter.   Inner-Iter.     Column Row Layer    Maximum-Head-Change  Column Row Layer    Maximum-Flux-Residual          L2-NORM 
          0                 1           2             5    8     1       0.1530737986E+00       5    8    1         0.8323283206E+01      0.2042728363E+02
          0                 2           2             5    8     1      -0.5448868995E-01       5    8    1        -0.3012876705E+01      0.7217406582E+01
          0                 3           2             4    7     1       0.4303754902E-01       5    8    1         0.2391474142E+01      0.5858930321E+01
          0                 4           2             4    7     1      -0.1712514288E-02       5    8    1        -0.9779762371E-01      0.2420989797E+00
          0                 5           1             4   13     1      -0.2617199201E-04       4   13    1        -0.1778711747E-02      0.3893392272E-02

    ------------------------------------------------
       NWT REQUIRED            5 OUTER ITERATIONS 
       AND A TOTAL OF          9 INNER ITERATIONS.
    ------------------------------------------------

 NO OUTPUT CONTROL FOR STRESS PERIOD    7   TIME STEP    1
 
 SOLVING FOR HEAD 
                                                   Max.-Head-Change                         Max.-Flux-Residual
  Residual-Control   Outer-Iter.   Inner-Iter.     Column Row Layer    Maximum-Head-Change  Column Row Layer    Maximum-Flux-Residual          L2-NORM 
          0                 1           2             5    8     1       0.1464212532E+00       5    8    1         0.7954512982E+01      0.1974760818E+02
          0                 2           2             5    8     1      -0.3184547606E-01       5    8    1        -0.1764757682E+01      0.4227049742E+01
          0                 3           2             4    7     1       0.1814327527E-01       5    8    1         0.1015576741E+01      0.2482884986E+01
          0                 4           2             4    7     1       0.6589535569E-03       4    7    1         0.3635973468E-01      0.8824507338E-01
          0                 5           1             4    7     1      -0.2622679152E-04       4    7    1        -0.1487643908E-02      0.3615107182E-02

    ------------------------------------------------
       NWT REQUIRED            5 OUTER ITERATIONS 
       AND A TOTAL OF          9 INNER ITERATIONS.
    ------------------------------------------------

 NO OUTPUT CONTROL FOR STRESS PERIOD    7   TIME STEP    2
 
 SOLVING FOR HEAD 
                                                   Max.-Head-Change                         Max.-Flux-Residual
  Residual-Control   Outer-Iter.   Inner-Iter.     Column Row Layer    Maximum-Head-Change  Column Row Layer    Maximum-Flux-Residual          L2-NORM 
          0                 1           2             5    8     1       0.1401806304E+00       5    8    1         0.7608824717E+01      0.1910956609E+02
          0                 2           2             5    6     1      -0.6321689317E-01       5    8    1        -0.3487092219E+01      0.8444307453E+01
          0                 3           2             4    7     1       0.5362224337E-01       5    8    1         0.2970327150E+01      0.7286238534E+01
          0                 4           2             4    7     1      -0.2133695172E-02       5    8    1        -0.1214627243E+00      0.3010336899E+00
          0                 5           1             4   13     1      -0.3231655792E-04       4   13    1        -0.2194452454E-02      0.4829046563E-02

    ------------------------------------------------
       NWT REQUIRED            5 OUTER ITERATIONS 
       AND A TOTAL OF          9 INNER ITERATIONS.
    ------------------------------------------------

 NO OUTPUT CONTROL FOR STRESS PERIOD    7   TIME STEP    3
 
 SOLVING FOR HEAD 
                                                   Max.-Head-Change                         Max.-Flux-Residual
  Residual-Control   Outer-Iter.   Inner-Iter.     Column Row Layer    Maximum-Head-Change  Column Row Layer    Maximum-Flux-Residual          L2-NORM 
          0                 1           2             5    6     1       0.1345594962E+00       5    8    1         0.7284520459E+01      0.1850771237E+02
          0                 2           2             4    7     1      -0.1874343119E+01       5    8    1        -0.1007284324E+03      0.2466028018E+03
          0                 3           2             4    7     1       0.1276162749E+00       5    6    1         0.7048960196E+01      0.1735960714E+02
          0                 4           2             4    7     1      -0.5078064824E-02       5    6    1        -0.2882048906E+00      0.7318712321E+00
          0                 5           2             7   13     1       0.1520188394E-03       7   13    1         0.8713688072E-02      0.1481482318E-01
          0                 6           1             7   13     1      -0.6045807101E-05       7   13    1        -0.3559862425E-03      0.4664478857E-03

    ------------------------------------------------
       NWT REQUIRED            6 OUTER ITERATIONS 
       AND A TOTAL OF         11 INNER ITERATIONS.
    ------------------------------------------------

 NO OUTPUT CONTROL FOR STRESS PERIOD    7   TIME STEP    4
 
 SOLVING FOR HEAD 
                                                   Max.-Head-Change                         Max.-Flux-Residual
  Residual-Control   Outer-Iter.   Inner-Iter.     Column Row Layer    Maximum-Head-Change  Column Row Layer    Maximum-Flux-Residual          L2-NORM 
          0                 1           2             5    8     1       0.1829261069E+00       5    8    1         0.9965286124E+01      0.2374395931E+02
          0                 2           2             5    8     1      -0.8589404630E-01       5    8    1        -0.4746496100E+01      0.1135065574E+02
          0                 3           2             4    7     1       0.7354345000E-01       5    8    1         0.4082254021E+01      0.1000409968E+02
          0                 4           2             4    7     1      -0.2926392331E-02       5    8    1        -0.1669331953E+00      0.4128903619E+00
          0                 5           1             4    7     1       0.3608363770E-04       5    8    1         0.2113338998E-02      0.5607911593E-02

    ------------------------------------------------
       NWT REQUIRED            5 OUTER ITERATIONS 
       AND A TOTAL OF          9 INNER ITERATIONS.
    ------------------------------------------------

 OUTPUT CONTROL FOR STRESS PERIOD    7   TIME STEP    5
    PRINT BUDGET
    SAVE BUDGET
 UBDSV1 SAVING "         STORAGE" ON UNIT 102 AT TIME STEP 5, STRESS PERIOD7
 UBDSV2 SAVING "   CONSTANT HEAD" ON UNIT 102 AT TIME STEP 5, STRESS PERIOD 7
 UBDSV1 SAVING "FLOW RIGHT FACE " ON UNIT 102 AT TIME STEP 5, STRESS PERIOD7
 UBDSV1 SAVING "FLOW FRONT FACE " ON UNIT 102 AT TIME STEP 5, STRESS PERIOD7

  HEAD DEP BOUNDS   PERIOD    7   STEP     5
 BOUNDARY      1   LAYER   1   ROW    13   COL     1   RATE   -0.294540    
 BOUNDARY      2   LAYER   1   ROW    14   COL     9   RATE    0.285764    



 STREAM LISTING     PERIOD      7   STEP        5

 LAYER ROW COL. STREAM  RCH.  FLOW INTO     FLOW TO   FLOW OUT OF   OVRLND.     DIRECT     STREAM       STREAM     STREAM     STREAM   STREAMBED  STREAMBED
                SEG.NO.  NO.  STRM. RCH.    AQUIFER    STRM. RCH.    RUNOFF     PRECIP       ET          HEAD       DEPTH      WIDTH   CONDCTNC.   GRADIENT

   1    1    1     1     1    6.2250E+01  3.7978E-01   6.1870E+01  0.000E+00  0.000E+00  0.000E+00  1.09460E+03  1.553E+00  1.854E+01  8.342E-02  1.518E+00
   1    2    2     1     2    6.1870E+01  5.8817E-01   6.1282E+01  0.000E+00  0.000E+00  0.000E+00  1.08961E+03  1.547E+00  1.848E+01  1.294E-01  1.516E+00
   1    3    3     1     3    6.1282E+01  5.0163E-01   6.0781E+01  0.000E+00  0.000E+00  0.000E+00  1.08396E+03  1.540E+00  1.841E+01  1.105E-01  1.513E+00
   1    3    4     1     4    6.0781E+01  4.6194E-01   6.0319E+01  0.000E+00  0.000E+00  0.000E+00  1.07894E+03  1.534E+00  1.836E+01  1.019E-01  1.511E+00
   1    4    5     2     1    5.8319E+01  3.9026E-01   5.7928E+01  0.000E+00  0.000E+00  0.000E+00  1.07394E+03  2.003E+00  1.200E+01  7.800E-02  1.668E+00
   1    5    6     2     2    5.7928E+01  2.9977E-01   5.7629E+01  0.000E+00  0.000E+00  0.000E+00  1.06851E+03  1.996E+00  1.200E+01  6.000E-02  1.665E+00
   1    6    6     2     3    5.7629E+01  2.9940E-01   5.7329E+01  0.000E+00  0.000E+00  0.000E+00  1.06378E+03  1.990E+00  1.200E+01  6.000E-02  1.663E+00
   1    7    6     2     4    5.7329E+01  2.9903E-01   5.7030E+01  0.000E+00  0.000E+00  0.000E+00  1.05906E+03  1.984E+00  1.200E+01  6.000E-02  1.661E+00
   1    8    6     2     5    5.7030E+01  2.9865E-01   5.6732E+01  0.000E+00  0.000E+00  0.000E+00  1.05434E+03  1.978E+00  1.200E+01  6.000E-02  1.659E+00
   1    3    5     3     1    2.0000E+00  2.8252E-01   1.7175E+00  0.000E+00  0.000E+00  0.000E+00  1.07555E+03  1.909E+00  9.636E+00  7.227E-02  1.955E+00
   1    3    6     3     2    1.7175E+00  2.4905E-01   1.4684E+00  0.000E+00  0.000E+00  0.000E+00  1.07264E+03  1.727E+00  8.909E+00  6.682E-02  1.864E+00
   1    3    7     3     3    1.4684E+00  1.9718E-01   1.2712E+00  0.000E+00  0.000E+00  0.000E+00  1.06987E+03  1.555E+00  8.218E+00  5.547E-02  1.777E+00
   1    4    8     3     4    1.2712E+00  2.2567E-01   1.0456E+00  0.000E+00  0.000E+00  0.000E+00  1.06682E+03  1.364E+00  7.455E+00  6.709E-02  1.682E+00
   1    5    8     3     5    1.0456E+00  1.5790E-01   8.8768E-01  0.000E+00  0.000E+00  0.000E+00  1.06362E+03  1.164E+00  6.655E+00  4.991E-02  1.582E+00
   1    6    8     3     6    8.8768E-01  5.5980E-02   8.3170E-01  0.000E+00  0.000E+00  0.000E+00  1.06158E+03  1.036E+00  6.145E+00  1.844E-02  1.518E+00
   1    5   10     4     1    1.0000E+01  9.0919E-02   9.9091E+00  0.000E+00  0.000E+00  0.000E+00  1.07836E+03  6.368E-01  1.000E+01  2.500E-02  1.212E+00
   1    5    9     4     2    9.9091E+00  1.8158E-01   9.7275E+00  0.000E+00  0.000E+00  0.000E+00  1.07154E+03  6.315E-01  1.000E+01  5.000E-02  1.211E+00
   1    6    8     4     3    9.7275E+00  1.2689E-01   9.6006E+00  0.000E+00  0.000E+00  0.000E+00  1.06381E+03  6.256E-01  1.000E+01  3.500E-02  1.209E+00
   1    6    8     5     1    1.0432E+01  2.2686E-01   1.0205E+01  0.000E+00  0.000E+00  0.000E+00  1.05868E+03  6.790E-01  1.542E+01  6.166E-02  1.226E+00
   1    7    7     5     2    1.0205E+01  2.7894E-01   9.9265E+00  0.000E+00  0.000E+00  0.000E+00  1.05417E+03  6.732E-01  1.519E+01  7.594E-02  1.224E+00
   1    8    7     5     3    9.9265E+00  1.9221E-01   9.7343E+00  0.000E+00  0.000E+00  0.000E+00  1.04992E+03  6.676E-01  1.497E+01  5.241E-02  1.223E+00
   1    8    6     5     4    9.7343E+00  1.3577E-01   9.5985E+00  0.000E+00  0.000E+00  0.000E+00  1.04691E+03  6.637E-01  1.482E+01  3.706E-02  1.221E+00
   1    9    6     6     1    2.1330E+01  2.4638E-01   2.1084E+01  0.000E+00  0.000E+00  0.000E+00  1.04383E+03  1.106E+00  1.200E+01  6.000E-02  1.369E+00
   1   10    7     6     2    2.1084E+01  2.4591E-01   2.0838E+01  0.000E+00  0.000E+00  0.000E+00  1.03928E+03  1.099E+00  1.200E+01  6.000E-02  1.366E+00
   1   11    7     6     3    2.0838E+01  2.4545E-01   2.0592E+01  0.000E+00  0.000E+00  0.000E+00  1.03473E+03  1.091E+00  1.200E+01  6.000E-02  1.364E+00
   1   12    7     6     4    2.0592E+01  2.4498E-01   2.0347E+01  0.000E+00  0.000E+00  0.000E+00  1.03017E+03  1.083E+00  1.200E+01  6.000E-02  1.361E+00
   1   13    7     6     5    2.0347E+01 -3.7909E-02   2.0385E+01  0.000E+00  0.000E+00  0.000E+00  1.02699E+03  1.080E+00  1.200E+01  2.400E-01 -5.265E-02
   1   14    9     7     1    1.5000E+02  1.3359E+00   1.4866E+02  0.000E+00  0.000E+00  0.000E+00  1.03987E+03  2.288E+00  5.529E+01  5.593E-01  7.962E-01
   1   13    8     7     2    1.4866E+02  1.8214E+00   1.4684E+02  0.000E+00  0.000E+00  0.000E+00  1.03478E+03  2.279E+00  5.526E+01  6.148E-01  9.875E-01
   1   13    7     7     3    1.4684E+02  1.4203E+00   1.4542E+02  0.000E+00  0.000E+00  0.000E+00  1.02969E+03  2.271E+00  5.522E+01  5.585E-01  8.477E-01
   1   13    6     8     1    1.6581E+02  8.2299E-01   1.6498E+02  0.000E+00  0.000E+00  0.000E+00  1.02480E+03  2.922E+00  4.237E+01  4.317E-01  6.354E-01
   1   13    5     8     2    1.6498E+02  7.9747E-02   1.6491E+02  0.000E+00  0.000E+00  0.000E+00  1.01854E+03  2.919E+00  4.233E+01  4.313E-01  6.163E-02
   1   13    4     8     3    1.6491E+02 -3.0608E+00   1.6797E+02  0.000E+00  0.000E+00  0.000E+00  1.01230E+03  2.929E+00  4.247E+01  4.328E+00 -2.358E-01
   1   13    3     8     4    1.6797E+02 -4.1251E+00   1.7209E+02  0.000E+00  0.000E+00  0.000E+00  1.00608E+03  2.952E+00  4.281E+01  4.362E+00 -3.152E-01
   1   13    2     8     5    1.7209E+02 -3.2092E+00   1.7530E+02  0.000E+00  0.000E+00  0.000E+00  9.99851E+02  2.976E+00  4.315E+01  4.397E+00 -2.433E-01
   1   13    1     8     6    1.7530E+02 -2.3415E+00   1.7764E+02  0.000E+00  0.000E+00  0.000E+00  9.94869E+02  2.994E+00  4.341E+01  2.654E+00 -2.941E-01
   1    8    6     9     1    4.5000E+01  0.0000E+00   4.5000E+01  0.000E+00  0.000E+00  0.000E+00  1.08434E+03  5.587E+00  4.000E+00  0.000E+00  2.862E+00
   1    8    5     9     2    4.5000E+01  0.0000E+00   4.5000E+01  0.000E+00  0.000E+00  0.000E+00  1.08384E+03  5.587E+00  4.000E+00  0.000E+00  2.862E+00



 UBDSV3 SAVING "           GW ET" ON UNIT  61 AT TIME STEP 5, STRESS PERIOD 7
 UBDSV3 SAVING "    UZF RECHARGE" ON UNIT  61 AT TIME STEP 5, STRESS PERIOD 7
 UBDSV3 SAVING " SURFACE LEAKAGE" ON UNIT  61 AT TIME STEP 5, STRESS PERIOD 7
 UBDSV3 SAVING "       HORT+DUNN" ON UNIT  61 AT TIME STEP 5, STRESS PERIOD 7
 UBDSV3 SAVING "  STORAGE CHANGE" ON UNIT  61 AT TIME STEP 5, STRESS PERIOD 7


UNSATURATED ZONE PACKAGE VOLUMETRIC BUDGET FOR  TIME STEP     5 STRESS PERIOD    7
  ------------------------------------------------------------------------------



     CUMULATIVE VOLUMES      L**3       RATES FOR THIS TIME STEP      L**3/T
     ------------------                 ------------------------

           IN:                                      IN:
           ---                                      ---
        INFILTRATION =   540143564.5536          INFILTRATION =          45.8484

          OUT:                                     OUT:
          ----                                     ----
              UZF ET =    50715477.6741                UZF ET =          23.3175
        UZF RECHARGE =       73224.0000          UZF RECHARGE =       0.0000E+00

            IN - OUT =   489354862.8795              IN - OUT =          22.5309

          STORAGE:                                 STORAGE:
          --------                                 --------
      STORAGE CHANGE =   489844963.5202        STORAGE CHANGE =          22.5157

 PERCENT DISCREPANCY IS DIFFERENCE BETWEEN IN-OUT MINUS CHANGE IN STORAGE
 DIVIDED BY THE AVERAGE OF IN AND OUT TIMES 100

 PERCENT DISCREPANCY =          -0.02     PERCENT DISCREPANCY =           0.03






 

            AG WELLS      PERIOD    7   STEP   5
 AG WELL      1   LAYER   1   ROW     6   COL     4   RATE     0.00000    
 AG WELL      2   LAYER   1   ROW     6   COL     5   RATE     0.00000    
 AG WELL      3   LAYER   1   ROW     7   COL     4   RATE     0.00000    
 AG WELL      4   LAYER   1   ROW     7   COL     5   RATE     0.00000    
 AG WELL      5   LAYER   1   ROW     8   COL     4   RATE     0.00000    
 AG WELL      6   LAYER   1   ROW     8   COL     5   RATE     0.00000    
 
 

   DIVERSION SEGMENTS     PERIOD    7   STEP   5
 SEGMENT      9   RATE     45.0000    
 
 

        SW IRRIGATION     PERIOD    7   STEP   5
 SEGMENT      9   ROW     6   COL     4   RATE     7.50015    
 SEGMENT      9   ROW     6   COL     5   RATE     7.50015    
 SEGMENT      9   ROW     7   COL     4   RATE     7.50015    
 SEGMENT      9   ROW     7   COL     5   RATE     7.50015    
 SEGMENT      9   ROW     8   COL     4   RATE     7.50015    
 SEGMENT      9   ROW     8   COL     5   RATE     7.50015    
 
 

        GW IRRIGATION     PERIOD    7   STEP   5
 AG WELL      1   ROW     6   COL     4   RATE     0.00000    
 AG WELL      2   ROW     6   COL     5   RATE     0.00000    
 AG WELL      3   ROW     7   COL     4   RATE     0.00000    
 AG WELL      4   ROW     7   COL     5   RATE     0.00000    
 AG WELL      5   ROW     8   COL     4   RATE     0.00000    
 AG WELL      6   ROW     8   COL     5   RATE     0.00000    
 
1
  VOLUMETRIC BUDGET FOR AGRICULTURAL FIELDS AT  END OF TIME STEP    5, STRESS PERIOD   7
  ------------------------------------------------------------------------------

     CUMULATIVE VOLUMES      L**3       RATES FOR THIS TIME STEP      L**3/T
     ------------------                 ------------------------

           IN:                                      IN:
           ---                                      ---
               AG WELLS  =   477571456.0000                 AG WELLS  =           0.0000
      DIVERSION SEGMENTS =    50994256.0000        DIVERSION SEGMENTS =          45.0000
       IRRIGATION PONDS  =           0.0000         IRRIGATION PONDS  =           0.0000
           GW IRRIGATION =           0.0000             GW IRRIGATION =           0.0000
           SW IRRIGATION =           0.0000             SW IRRIGATION =           0.0000
        SYSTEM LOSSES GW =           0.0000          SYSTEM LOSSES GW =           0.0000
        SYSTEM LOSSES SW =           0.0000          SYSTEM LOSSES SW =           0.0000

                TOTAL IN =   528565696.0000                  TOTAL IN =          45.0000

          OUT:                                     OUT:
          ----                                     ----
               AG WELLS  =           0.0000                 AG WELLS  =           0.0000
      DIVERSION SEGMENTS =           0.0000        DIVERSION SEGMENTS =           0.0000
       IRRIGATION PONDS  =           0.0000         IRRIGATION PONDS  =           0.0000
           GW IRRIGATION =   477571456.0000             GW IRRIGATION =           0.0000
           SW IRRIGATION =    50995268.0000             SW IRRIGATION =          45.0009
        SYSTEM LOSSES GW =           0.0000          SYSTEM LOSSES GW =           0.0000
        SYSTEM LOSSES SW =           0.0000          SYSTEM LOSSES SW =           0.0000

               TOTAL OUT =   528566720.0000                 TOTAL OUT =          45.0009

                IN - OUT =       -1024.0000                  IN - OUT =      -9.0027E-04

     PERCENT DISCREPANCY =          -0.00         PERCENT DISCREPANCY =          -0.00



1
  VOLUMETRIC BUDGET FOR ENTIRE MODEL AT END OF TIME STEP    5, STRESS PERIOD   7
  ------------------------------------------------------------------------------

     CUMULATIVE VOLUMES      L**3       RATES FOR THIS TIME STEP      L**3/T
     ------------------                 ------------------------

           IN:                                      IN:
           ---                                      ---
             STORAGE     =   617086080.0000               STORAGE     =          50.7921
       CONSTANT HEAD     =           0.0000         CONSTANT HEAD     =           0.0000
     HEAD DEP BOUNDS     =     3907048.7500       HEAD DEP BOUNDS     =           0.2858
      STREAM LEAKAGE     =   166418656.0000        STREAM LEAKAGE     =          12.3831
        UZF RECHARGE     =       73223.9531          UZF RECHARGE     =           0.0000
               GW ET     =           0.0000                 GW ET     =           0.0000
     SURFACE LEAKAGE     =           0.0000       SURFACE LEAKAGE     =           0.0000
           AG WELLS      =           0.0000             AG WELLS      =           0.0000

                TOTAL IN =   787485056.0000                  TOTAL IN =          63.4610

          OUT:                                     OUT:
          ----                                     ----
             STORAGE     =   161305952.0000               STORAGE     =          50.1363
       CONSTANT HEAD     =           0.0000         CONSTANT HEAD     =           0.0000
     HEAD DEP BOUNDS     =     3987452.2500       HEAD DEP BOUNDS     =           0.2945
      STREAM LEAKAGE     =   143689280.0000        STREAM LEAKAGE     =          12.7746
        UZF RECHARGE     =           0.0000          UZF RECHARGE     =           0.0000
               GW ET     =      934503.1875                 GW ET     =           0.2553
     SURFACE LEAKAGE     =           0.0000       SURFACE LEAKAGE     =           0.0000
           AG WELLS      =   477571456.0000             AG WELLS      =           0.0000

               TOTAL OUT =   787488640.0000                 TOTAL OUT =          63.4607

                IN - OUT =       -3584.0000                  IN - OUT =       2.5940E-04

     PERCENT DISCREPANCY =          -0.00         PERCENT DISCREPANCY =           0.00






         TIME SUMMARY AT END OF TIME STEP    5 IN STRESS PERIOD    7
                    SECONDS     MINUTES      HOURS       DAYS        YEARS
                    -----------------------------------------------------------
   TIME STEP LENGTH  87667.      1461.1      24.352      1.0147     2.77799E-03
 STRESS PERIOD TIME 4.38333E+05  7305.6      121.76      5.0733     1.38899E-02
         TOTAL TIME 1.36747E+07 2.27912E+05  3798.5      158.27     0.43333    
1
 
 SOLVING FOR HEAD 
                                                   Max.-Head-Change                         Max.-Flux-Residual
  Residual-Control   Outer-Iter.   Inner-Iter.     Column Row Layer    Maximum-Head-Change  Column Row Layer    Maximum-Flux-Residual          L2-NORM 
          0                 1           2             5    8     1       0.1746508689E+00       5    8    1         0.9505728006E+01      0.2292667803E+02
          0                 2           2             5    8     1      -0.1698833072E-01       5    8    1        -0.9505425751E+00      0.2303146079E+01
          0                 3           2             5    8     1       0.1156846608E-02       5    8    1         0.6653829494E-01      0.1612163170E+00
          0                 4           1             5    8     1      -0.4603198987E-04       5    8    1        -0.2721418742E-02      0.6593464741E-02

    ------------------------------------------------
       NWT REQUIRED            4 OUTER ITERATIONS 
       AND A TOTAL OF          7 INNER ITERATIONS.
    ------------------------------------------------

 NO OUTPUT CONTROL FOR STRESS PERIOD    7   TIME STEP    6
 
 SOLVING FOR HEAD 
     PET DIFF ERROR     6    4    0.2245318244E-08    0.1500000053E-06
     PET DIFF ERROR     6    5    0.2245311669E-08    0.1500000053E-06
     PET DIFF ERROR     7    4    0.2245318269E-08    0.1500000053E-06
     PET DIFF ERROR     7    5    0.2245314982E-08    0.1500000053E-06
     PET DIFF ERROR     8    4    0.2245311694E-08    0.1500000053E-06
     PET DIFF ERROR     8    5    0.2245314957E-08    0.1500000053E-06
                                                   Max.-Head-Change                         Max.-Flux-Residual
  Residual-Control   Outer-Iter.   Inner-Iter.     Column Row Layer    Maximum-Head-Change  Column Row Layer    Maximum-Flux-Residual          L2-NORM 
          0                 1           2             5    8     1       0.1669029115E+00       5    8    1         0.9075749191E+01      0.2215024905E+02
     PET DIFF ERROR     6    4    0.2245318244E-08    0.1500000053E-06
     PET DIFF ERROR     6    5    0.2245311669E-08    0.1500000053E-06
     PET DIFF ERROR     7    4    0.2245318269E-08    0.1500000053E-06
     PET DIFF ERROR     7    5    0.2245314982E-08    0.1500000053E-06
     PET DIFF ERROR     8    4    0.2245311694E-08    0.1500000053E-06
     PET DIFF ERROR     8    5    0.2245314957E-08    0.1500000053E-06
          0                 2           2             5    8     1      -0.1623469647E-01       5    8    1        -0.9075468182E+00      0.2214898377E+01
     PET DIFF ERROR     6    4    0.2245318244E-08    0.1500000053E-06
     PET DIFF ERROR     6    5    0.2245311669E-08    0.1500000053E-06
     PET DIFF ERROR     7    4    0.2245318269E-08    0.1500000053E-06
     PET DIFF ERROR     7    5    0.2245314982E-08    0.1500000053E-06
     PET DIFF ERROR     8    4    0.2245311694E-08    0.1500000053E-06
     PET DIFF ERROR     8    5    0.2245314957E-08    0.1500000053E-06
          0                 3           2             5    8     1       0.1105526609E-02       5    8    1         0.6352857057E-01      0.1550410139E+00
     PET DIFF ERROR     6    4    0.2245318244E-08    0.1500000053E-06
     PET DIFF ERROR     6    5    0.2245311669E-08    0.1500000053E-06
     PET DIFF ERROR     7    4    0.2245318269E-08    0.1500000053E-06
     PET DIFF ERROR     7    5    0.2245314982E-08    0.1500000053E-06
     PET DIFF ERROR     8    4    0.2245311694E-08    0.1500000053E-06
     PET DIFF ERROR     8    5    0.2245314957E-08    0.1500000053E-06
          0                 4           1             5    8     1      -0.4398992027E-04       5    8    1        -0.2598320928E-02      0.6341014561E-02

    ------------------------------------------------
       NWT REQUIRED            4 OUTER ITERATIONS 
       AND A TOTAL OF          7 INNER ITERATIONS.
    ------------------------------------------------

 NO OUTPUT CONTROL FOR STRESS PERIOD    7   TIME STEP    7
     PET DIFF ERROR     6    4    0.2245318244E-08    0.1500000053E-06
     PET DIFF ERROR     6    5    0.2245311669E-08    0.1500000053E-06
     PET DIFF ERROR     7    4    0.2245318269E-08    0.1500000053E-06
     PET DIFF ERROR     7    5    0.2245314982E-08    0.1500000053E-06
     PET DIFF ERROR     8    4    0.2245311694E-08    0.1500000053E-06
     PET DIFF ERROR     8    5    0.2245314957E-08    0.1500000053E-06
 
 SOLVING FOR HEAD 
                                                   Max.-Head-Change                         Max.-Flux-Residual
  Residual-Control   Outer-Iter.   Inner-Iter.     Column Row Layer    Maximum-Head-Change  Column Row Layer    Maximum-Flux-Residual          L2-NORM 
          0                 1           2             5    8     1       0.1596424303E+00       5    8    1         0.8673127352E+01      0.2142022930E+02
          0                 2           2             4    7     1      -0.1875385089E+01       5    8    1        -0.1008672866E+03      0.2468506584E+03
          0                 3           2             4    7     1       0.1276873416E+00       5    8    1         0.7058623328E+01      0.1732354828E+02
          0                 4           2             4    7     1      -0.5080892065E-02       5    6    1        -0.2885916864E+00      0.7233997375E+00
          0                 5           2             7   13     1       0.1526371284E-03       7   13    1         0.8746659416E-02      0.1306348417E-01
          0                 6           1             7   13     1      -0.6069729680E-05       7   13    1        -0.3573635618E-03      0.3845397711E-03

    ------------------------------------------------
       NWT REQUIRED            6 OUTER ITERATIONS 
       AND A TOTAL OF         11 INNER ITERATIONS.
    ------------------------------------------------

 NO OUTPUT CONTROL FOR STRESS PERIOD    7   TIME STEP    8
 
 SOLVING FOR HEAD 
                                                   Max.-Head-Change                         Max.-Flux-Residual
  Residual-Control   Outer-Iter.   Inner-Iter.     Column Row Layer    Maximum-Head-Change  Column Row Layer    Maximum-Flux-Residual          L2-NORM 
          0                 1           2             5    8     1       0.2069295783E+00       5    8    1         0.1128028204E+02      0.2659380163E+02
          0                 2           2             5    8     1      -0.8822971316E-01       5    8    1        -0.4877987817E+01      0.1160569742E+02
          0                 3           2             4    7     1       0.7361434443E-01       5    8    1         0.4091458481E+01      0.1002099692E+02
          0                 4           2             4    7     1      -0.2929212999E-02       5    8    1        -0.1673129467E+00      0.4135815233E+00
          0                 5           1             4    7     1       0.3611841820E-04       5    8    1         0.2118374816E-02      0.5617936486E-02

    ------------------------------------------------
       NWT REQUIRED            5 OUTER ITERATIONS 
       AND A TOTAL OF          9 INNER ITERATIONS.
    ------------------------------------------------

 NO OUTPUT CONTROL FOR STRESS PERIOD    7   TIME STEP    9
 
 SOLVING FOR HEAD 
                                                   Max.-Head-Change                         Max.-Flux-Residual
  Residual-Control   Outer-Iter.   Inner-Iter.     Column Row Layer    Maximum-Head-Change  Column Row Layer    Maximum-Flux-Residual          L2-NORM 
          0                 1           2             5    8     1       0.1974406422E+00       5    8    1         0.1075301885E+02      0.2566170924E+02
          0                 2           2             5    8     1      -0.1920504889E-01       5    8    1        -0.1075264358E+01      0.2575411904E+01
          0                 3           2             5    8     1       0.1307797927E-02       5    8    1         0.7526889259E-01      0.1802725958E+00
          0                 4           1             5    8     1      -0.5203847919E-04       5    8    1        -0.3078500357E-02      0.7372691022E-02

    ------------------------------------------------
       NWT REQUIRED            4 OUTER ITERATIONS 
       AND A TOTAL OF          7 INNER ITERATIONS.
    ------------------------------------------------

 OUTPUT CONTROL FOR STRESS PERIOD    7   TIME STEP   10
    PRINT BUDGET
    SAVE BUDGET
 UBDSV1 SAVING "         STORAGE" ON UNIT 102 AT TIME STEP 10, STRESS PERIOD7
 UBDSV2 SAVING "   CONSTANT HEAD" ON UNIT 102 AT TIME STEP 10, STRESS PERIOD 7
 UBDSV1 SAVING "FLOW RIGHT FACE " ON UNIT 102 AT TIME STEP 10, STRESS PERIOD7
 UBDSV1 SAVING "FLOW FRONT FACE " ON UNIT 102 AT TIME STEP 10, STRESS PERIOD7

  HEAD DEP BOUNDS   PERIOD    7   STEP    10
 BOUNDARY      1   LAYER   1   ROW    13   COL     1   RATE   -0.294259    
 BOUNDARY      2   LAYER   1   ROW    14   COL     9   RATE    0.285765    



 STREAM LISTING     PERIOD      7   STEP       10

 LAYER ROW COL. STREAM  RCH.  FLOW INTO     FLOW TO   FLOW OUT OF   OVRLND.     DIRECT     STREAM       STREAM     STREAM     STREAM   STREAMBED  STREAMBED
                SEG.NO.  NO.  STRM. RCH.    AQUIFER    STRM. RCH.    RUNOFF     PRECIP       ET          HEAD       DEPTH      WIDTH   CONDCTNC.   GRADIENT

   1    1    1     1     1    6.2250E+01  3.7978E-01   6.1870E+01  0.000E+00  0.000E+00  0.000E+00  1.09460E+03  1.553E+00  1.854E+01  8.342E-02  1.518E+00
   1    2    2     1     2    6.1870E+01  5.8817E-01   6.1282E+01  0.000E+00  0.000E+00  0.000E+00  1.08961E+03  1.547E+00  1.848E+01  1.294E-01  1.516E+00
   1    3    3     1     3    6.1282E+01  5.0163E-01   6.0781E+01  0.000E+00  0.000E+00  0.000E+00  1.08396E+03  1.540E+00  1.841E+01  1.105E-01  1.513E+00
   1    3    4     1     4    6.0781E+01  4.6194E-01   6.0319E+01  0.000E+00  0.000E+00  0.000E+00  1.07894E+03  1.534E+00  1.836E+01  1.019E-01  1.511E+00
   1    4    5     2     1    5.8319E+01  3.9026E-01   5.7928E+01  0.000E+00  0.000E+00  0.000E+00  1.07394E+03  2.003E+00  1.200E+01  7.800E-02  1.668E+00
   1    5    6     2     2    5.7928E+01  2.9977E-01   5.7629E+01  0.000E+00  0.000E+00  0.000E+00  1.06851E+03  1.996E+00  1.200E+01  6.000E-02  1.665E+00
   1    6    6     2     3    5.7629E+01  2.9940E-01   5.7329E+01  0.000E+00  0.000E+00  0.000E+00  1.06378E+03  1.990E+00  1.200E+01  6.000E-02  1.663E+00
   1    7    6     2     4    5.7329E+01  2.9903E-01   5.7030E+01  0.000E+00  0.000E+00  0.000E+00  1.05906E+03  1.984E+00  1.200E+01  6.000E-02  1.661E+00
   1    8    6     2     5    5.7030E+01  2.9865E-01   5.6732E+01  0.000E+00  0.000E+00  0.000E+00  1.05434E+03  1.978E+00  1.200E+01  6.000E-02  1.659E+00
   1    3    5     3     1    2.0000E+00  2.8252E-01   1.7175E+00  0.000E+00  0.000E+00  0.000E+00  1.07555E+03  1.909E+00  9.636E+00  7.227E-02  1.955E+00
   1    3    6     3     2    1.7175E+00  2.4905E-01   1.4684E+00  0.000E+00  0.000E+00  0.000E+00  1.07264E+03  1.727E+00  8.909E+00  6.682E-02  1.864E+00
   1    3    7     3     3    1.4684E+00  1.9718E-01   1.2712E+00  0.000E+00  0.000E+00  0.000E+00  1.06987E+03  1.555E+00  8.218E+00  5.547E-02  1.777E+00
   1    4    8     3     4    1.2712E+00  2.2567E-01   1.0456E+00  0.000E+00  0.000E+00  0.000E+00  1.06682E+03  1.364E+00  7.455E+00  6.709E-02  1.682E+00
   1    5    8     3     5    1.0456E+00  1.5790E-01   8.8768E-01  0.000E+00  0.000E+00  0.000E+00  1.06362E+03  1.164E+00  6.655E+00  4.991E-02  1.582E+00
   1    6    8     3     6    8.8768E-01  5.5980E-02   8.3170E-01  0.000E+00  0.000E+00  0.000E+00  1.06158E+03  1.036E+00  6.145E+00  1.844E-02  1.518E+00
   1    5   10     4     1    1.0000E+01  9.0919E-02   9.9091E+00  0.000E+00  0.000E+00  0.000E+00  1.07836E+03  6.368E-01  1.000E+01  2.500E-02  1.212E+00
   1    5    9     4     2    9.9091E+00  1.8158E-01   9.7275E+00  0.000E+00  0.000E+00  0.000E+00  1.07154E+03  6.315E-01  1.000E+01  5.000E-02  1.211E+00
   1    6    8     4     3    9.7275E+00  1.2689E-01   9.6006E+00  0.000E+00  0.000E+00  0.000E+00  1.06381E+03  6.256E-01  1.000E+01  3.500E-02  1.209E+00
   1    6    8     5     1    1.0432E+01  2.2686E-01   1.0205E+01  0.000E+00  0.000E+00  0.000E+00  1.05868E+03  6.790E-01  1.542E+01  6.166E-02  1.226E+00
   1    7    7     5     2    1.0205E+01  2.7894E-01   9.9265E+00  0.000E+00  0.000E+00  0.000E+00  1.05417E+03  6.732E-01  1.519E+01  7.594E-02  1.224E+00
   1    8    7     5     3    9.9265E+00  1.9221E-01   9.7343E+00  0.000E+00  0.000E+00  0.000E+00  1.04992E+03  6.676E-01  1.497E+01  5.241E-02  1.223E+00
   1    8    6     5     4    9.7343E+00  1.3577E-01   9.5985E+00  0.000E+00  0.000E+00  0.000E+00  1.04691E+03  6.637E-01  1.482E+01  3.706E-02  1.221E+00
   1    9    6     6     1    6.6330E+01  3.1138E-01   6.6019E+01  0.000E+00  0.000E+00  0.000E+00  1.04492E+03  2.190E+00  1.200E+01  6.000E-02  1.730E+00
   1   10    7     6     2    6.6019E+01  3.1101E-01   6.5708E+01  0.000E+00  0.000E+00  0.000E+00  1.04037E+03  2.184E+00  1.200E+01  6.000E-02  1.728E+00
   1   11    7     6     3    6.5708E+01  3.1064E-01   6.5397E+01  0.000E+00  0.000E+00  0.000E+00  1.03581E+03  2.177E+00  1.200E+01  6.000E-02  1.726E+00
   1   12    7     6     4    6.5397E+01  3.1027E-01   6.5087E+01  0.000E+00  0.000E+00  0.000E+00  1.03126E+03  2.171E+00  1.200E+01  6.000E-02  1.724E+00
   1   13    7     6     5    6.5087E+01  2.2316E-02   6.5065E+01  0.000E+00  0.000E+00  0.000E+00  1.02808E+03  2.168E+00  1.200E+01  2.400E-02  3.100E-01
   1   14    9     7     1    1.5000E+02  1.3359E+00   1.4866E+02  0.000E+00  0.000E+00  0.000E+00  1.03987E+03  2.288E+00  5.529E+01  5.593E-01  7.962E-01
   1   13    8     7     2    1.4866E+02  1.8210E+00   1.4684E+02  0.000E+00  0.000E+00  0.000E+00  1.03478E+03  2.279E+00  5.526E+01  6.148E-01  9.873E-01
   1   13    7     7     3    1.4684E+02  1.4202E+00   1.4542E+02  0.000E+00  0.000E+00  0.000E+00  1.02969E+03  2.271E+00  5.522E+01  5.585E-01  8.477E-01
   1   13    6     8     1    2.1049E+02  1.0297E+00   2.0946E+02  0.000E+00  0.000E+00  0.000E+00  1.02507E+03  3.196E+00  4.633E+01  4.722E-01  7.269E-01
   1   13    5     8     2    2.0946E+02  2.1716E-01   2.0924E+02  0.000E+00  0.000E+00  0.000E+00  1.01882E+03  3.192E+00  4.628E+01  4.716E-01  1.535E-01
   1   13    4     8     3    2.0924E+02 -2.0602E+00   2.1130E+02  0.000E+00  0.000E+00  0.000E+00  1.01257E+03  3.197E+00  4.636E+01  4.724E+00 -1.454E-01
   1   13    3     8     4    2.1130E+02 -3.2306E+00   2.1453E+02  0.000E+00  0.000E+00  0.000E+00  1.00634E+03  3.212E+00  4.658E+01  4.746E+00 -2.269E-01
   1   13    2     8     5    2.1453E+02 -2.2268E+00   2.1676E+02  0.000E+00  0.000E+00  0.000E+00  1.00010E+03  3.228E+00  4.680E+01  4.769E+00 -1.556E-01
   1   13    1     8     6    2.1676E+02 -1.8083E+00   2.1857E+02  0.000E+00  0.000E+00  0.000E+00  9.95114E+02  3.239E+00  4.696E+01  2.871E+00 -2.099E-01
   1    8    6     9     1    0.0000E+00  0.0000E+00   0.0000E+00  0.000E+00  0.000E+00  0.000E+00  1.07875E+03  0.000E+00  4.000E+00  0.000E+00  1.000E+00
   1    8    5     9     2    0.0000E+00  0.0000E+00   0.0000E+00  0.000E+00  0.000E+00  0.000E+00  1.07825E+03  0.000E+00  4.000E+00  0.000E+00  1.000E+00



 UBDSV3 SAVING "           GW ET" ON UNIT  61 AT TIME STEP 10, STRESS PERIOD 7
 UBDSV3 SAVING "    UZF RECHARGE" ON UNIT  61 AT TIME STEP 10, STRESS PERIOD 7
 UBDSV3 SAVING " SURFACE LEAKAGE" ON UNIT  61 AT TIME STEP 10, STRESS PERIOD 7
 UBDSV3 SAVING "       HORT+DUNN" ON UNIT  61 AT TIME STEP 10, STRESS PERIOD 7
 UBDSV3 SAVING "  STORAGE CHANGE" ON UNIT  61 AT TIME STEP 10, STRESS PERIOD 7


UNSATURATED ZONE PACKAGE VOLUMETRIC BUDGET FOR  TIME STEP    10 STRESS PERIOD    7
  ------------------------------------------------------------------------------



     CUMULATIVE VOLUMES      L**3       RATES FOR THIS TIME STEP      L**3/T
     ------------------                 ------------------------

           IN:                                      IN:
           ---                                      ---
        INFILTRATION =   602033698.6576          INFILTRATION =           0.8475

          OUT:                                     OUT:
          ----                                     ----
              UZF ET =    60996720.4035                UZF ET =          23.4936
        UZF RECHARGE =       73224.0000          UZF RECHARGE =       0.0000E+00

            IN - OUT =   540963754.2541              IN - OUT =         -22.6461

          STORAGE:                                 STORAGE:
          --------                                 --------
      STORAGE CHANGE =   541447898.3718        STORAGE CHANGE =         -22.6582

 PERCENT DISCREPANCY IS DIFFERENCE BETWEEN IN-OUT MINUS CHANGE IN STORAGE
 DIVIDED BY THE AVERAGE OF IN AND OUT TIMES 100

 PERCENT DISCREPANCY =          -0.02     PERCENT DISCREPANCY =           0.05






 

            AG WELLS      PERIOD    7   STEP  10
 AG WELL      1   LAYER   1   ROW     6   COL     4   RATE     0.00000    
 AG WELL      2   LAYER   1   ROW     6   COL     5   RATE     0.00000    
 AG WELL      3   LAYER   1   ROW     7   COL     4   RATE     0.00000    
 AG WELL      4   LAYER   1   ROW     7   COL     5   RATE     0.00000    
 AG WELL      5   LAYER   1   ROW     8   COL     4   RATE     0.00000    
 AG WELL      6   LAYER   1   ROW     8   COL     5   RATE     0.00000    
 
 

   DIVERSION SEGMENTS     PERIOD    7   STEP  10
 SEGMENT      9   RATE     0.00000    
 
 

        SW IRRIGATION     PERIOD    7   STEP  10
 SEGMENT      9   ROW     6   COL     4   RATE     0.00000    
 SEGMENT      9   ROW     6   COL     5   RATE     0.00000    
 SEGMENT      9   ROW     7   COL     4   RATE     0.00000    
 SEGMENT      9   ROW     7   COL     5   RATE     0.00000    
 SEGMENT      9   ROW     8   COL     4   RATE     0.00000    
 SEGMENT      9   ROW     8   COL     5   RATE     0.00000    
 
 

        GW IRRIGATION     PERIOD    7   STEP  10
 AG WELL      1   ROW     6   COL     4   RATE     0.00000    
 AG WELL      2   ROW     6   COL     5   RATE     0.00000    
 AG WELL      3   ROW     7   COL     4   RATE     0.00000    
 AG WELL      4   ROW     7   COL     5   RATE     0.00000    
 AG WELL      5   ROW     8   COL     4   RATE     0.00000    
 AG WELL      6   ROW     8   COL     5   RATE     0.00000    
 
1
  VOLUMETRIC BUDGET FOR AGRICULTURAL FIELDS AT  END OF TIME STEP   10, STRESS PERIOD   7
  ------------------------------------------------------------------------------

     CUMULATIVE VOLUMES      L**3       RATES FOR THIS TIME STEP      L**3/T
     ------------------                 ------------------------

           IN:                                      IN:
           ---                                      ---
               AG WELLS  =   530171456.0000                 AG WELLS  =           0.0000
      DIVERSION SEGMENTS =    59912728.0000        DIVERSION SEGMENTS =           0.0000
       IRRIGATION PONDS  =           0.0000         IRRIGATION PONDS  =           0.0000
           GW IRRIGATION =           0.0000             GW IRRIGATION =           0.0000
           SW IRRIGATION =           0.0000             SW IRRIGATION =           0.0000
        SYSTEM LOSSES GW =           0.0000          SYSTEM LOSSES GW =           0.0000
        SYSTEM LOSSES SW =           0.0000          SYSTEM LOSSES SW =           0.0000

                TOTAL IN =   590084160.0000                  TOTAL IN =           0.0000

          OUT:                                     OUT:
          ----                                     ----
               AG WELLS  =           0.0000                 AG WELLS  =           0.0000
      DIVERSION SEGMENTS =           0.0000        DIVERSION SEGMENTS =           0.0000
       IRRIGATION PONDS  =           0.0000         IRRIGATION PONDS  =           0.0000
           GW IRRIGATION =   530171456.0000             GW IRRIGATION =           0.0000
           SW IRRIGATION =    59913916.0000             SW IRRIGATION =           0.0000
        SYSTEM LOSSES GW =           0.0000          SYSTEM LOSSES GW =           0.0000
        SYSTEM LOSSES SW =           0.0000          SYSTEM LOSSES SW =           0.0000

               TOTAL OUT =   590085376.0000                 TOTAL OUT =           0.0000

                IN - OUT =       -1216.0000                  IN - OUT =           0.0000

     PERCENT DISCREPANCY =          -0.00         PERCENT DISCREPANCY =           0.00



1
  VOLUMETRIC BUDGET FOR ENTIRE MODEL AT END OF TIME STEP   10, STRESS PERIOD   7
  ------------------------------------------------------------------------------

     CUMULATIVE VOLUMES      L**3       RATES FOR THIS TIME STEP      L**3/T
     ------------------                 ------------------------

           IN:                                      IN:
           ---                                      ---
             STORAGE     =   687485568.0000               STORAGE     =          52.2296
       CONSTANT HEAD     =           0.0000         CONSTANT HEAD     =           0.0000
     HEAD DEP BOUNDS     =     4032308.7500       HEAD DEP BOUNDS     =           0.2858
      STREAM LEAKAGE     =   171994224.0000        STREAM LEAKAGE     =          13.0096
        UZF RECHARGE     =       73223.9531          UZF RECHARGE     =           0.0000
               GW ET     =           0.0000                 GW ET     =           0.0000
     SURFACE LEAKAGE     =           0.0000       SURFACE LEAKAGE     =           0.0000
           AG WELLS      =           0.0000             AG WELLS      =           0.0000

                TOTAL IN =   863585344.0000                  TOTAL IN =          65.5249

          OUT:                                     OUT:
          ----                                     ----
             STORAGE     =   179784128.0000               STORAGE     =          55.7089
       CONSTANT HEAD     =           0.0000         CONSTANT HEAD     =           0.0000
     HEAD DEP BOUNDS     =     4116510.2500       HEAD DEP BOUNDS     =           0.2943
      STREAM LEAKAGE     =   148476048.0000        STREAM LEAKAGE     =           9.3258
        UZF RECHARGE     =           0.0000          UZF RECHARGE     =           0.0000
               GW ET     =     1040718.0625                 GW ET     =           0.1959
     SURFACE LEAKAGE     =           0.0000       SURFACE LEAKAGE     =           0.0000
           AG WELLS      =   530171456.0000             AG WELLS      =           0.0000

               TOTAL OUT =   863588864.0000                 TOTAL OUT =          65.5249

                IN - OUT =       -3520.0000                  IN - OUT =       3.0518E-05

     PERCENT DISCREPANCY =          -0.00         PERCENT DISCREPANCY =           0.00






         TIME SUMMARY AT END OF TIME STEP   10 IN STRESS PERIOD    7
                    SECONDS     MINUTES      HOURS       DAYS        YEARS
                    -----------------------------------------------------------
   TIME STEP LENGTH  87667.      1461.1      24.352      1.0147     2.77799E-03
 STRESS PERIOD TIME 8.76667E+05  14611.      243.52      10.147     2.77799E-02
         TOTAL TIME 1.41131E+07 2.35218E+05  3920.3      163.35     0.44722    
1
 
 SOLVING FOR HEAD 
     PET DIFF ERROR     6    4    0.2245314982E-08    0.1500000053E-06
     PET DIFF ERROR     6    5    0.2245314982E-08    0.1500000053E-06
     PET DIFF ERROR     7    4    0.2245318269E-08    0.1500000053E-06
     PET DIFF ERROR     7    5    0.2245318269E-08    0.1500000053E-06
     PET DIFF ERROR     8    4    0.2245314932E-08    0.1500000053E-06
     PET DIFF ERROR     8    5    0.2245318269E-08    0.1500000053E-06
                                                   Max.-Head-Change                         Max.-Flux-Residual
  Residual-Control   Outer-Iter.   Inner-Iter.     Column Row Layer    Maximum-Head-Change  Column Row Layer    Maximum-Flux-Residual          L2-NORM 
          0                 1           2             5    8     1       0.1885611874E+00       5    8    1         0.1025996761E+02      0.2477652321E+02
     PET DIFF ERROR     6    4    0.2245314982E-08    0.1500000053E-06
     PET DIFF ERROR     6    5    0.2245314982E-08    0.1500000053E-06
     PET DIFF ERROR     7    4    0.2245318269E-08    0.1500000053E-06
     PET DIFF ERROR     7    5    0.2245318269E-08    0.1500000053E-06
     PET DIFF ERROR     8    4    0.2245314932E-08    0.1500000053E-06
     PET DIFF ERROR     8    5    0.2245318269E-08    0.1500000053E-06
          0                 2           2             5    8     1      -0.1834135841E-01       5    8    1        -0.1025961887E+01      0.2477479110E+01
     PET DIFF ERROR     6    4    0.2245314982E-08    0.1500000053E-06
     PET DIFF ERROR     6    5    0.2245314982E-08    0.1500000053E-06
     PET DIFF ERROR     7    4    0.2245318269E-08    0.1500000053E-06
     PET DIFF ERROR     7    5    0.2245318269E-08    0.1500000053E-06
     PET DIFF ERROR     8    4    0.2245314932E-08    0.1500000053E-06
     PET DIFF ERROR     8    5    0.2245318269E-08    0.1500000053E-06
          0                 3           2             5    8     1       0.1248983433E-02       5    8    1         0.7181769302E-01      0.1734201454E+00
     PET DIFF ERROR     6    4    0.2245314982E-08    0.1500000053E-06
     PET DIFF ERROR     6    5    0.2245314982E-08    0.1500000053E-06
     PET DIFF ERROR     7    4    0.2245318269E-08    0.1500000053E-06
     PET DIFF ERROR     7    5    0.2245318269E-08    0.1500000053E-06
     PET DIFF ERROR     8    4    0.2245314932E-08    0.1500000053E-06
     PET DIFF ERROR     8    5    0.2245318269E-08    0.1500000053E-06
          0                 4           1             5    8     1      -0.4969819676E-04       5    8    1        -0.2937346202E-02      0.7092583327E-02

    ------------------------------------------------
       NWT REQUIRED            4 OUTER ITERATIONS 
       AND A TOTAL OF          7 INNER ITERATIONS.
    ------------------------------------------------

 NO OUTPUT CONTROL FOR STRESS PERIOD    7   TIME STEP   11
     PET DIFF ERROR     6    4    0.2245314982E-08    0.1500000053E-06
     PET DIFF ERROR     6    5    0.2245314982E-08    0.1500000053E-06
     PET DIFF ERROR     7    4    0.2245318269E-08    0.1500000053E-06
     PET DIFF ERROR     7    5    0.2245318269E-08    0.1500000053E-06
     PET DIFF ERROR     8    4    0.2245314932E-08    0.1500000053E-06
     PET DIFF ERROR     8    5    0.2245318269E-08    0.1500000053E-06
 
 SOLVING FOR HEAD 
                                                   Max.-Head-Change                         Max.-Flux-Residual
  Residual-Control   Outer-Iter.   Inner-Iter.     Column Row Layer    Maximum-Head-Change  Column Row Layer    Maximum-Flux-Residual          L2-NORM 
          0                 1           2             5    8     1       0.1802452902E+00       5    8    1         0.9798557978E+01      0.2394505616E+02
          0                 2           2             4    7     1      -0.1876494513E+01       5    8    1        -0.1009798234E+03      0.2470681927E+03
          0                 3           2             4    7     1       0.1277629619E+00       5    8    1         0.7066539135E+01      0.1733901469E+02
          0                 4           2             4    7     1      -0.5083900686E-02       5    8    1        -0.2889186309E+00      0.7240136819E+00
          0                 5           2             7   13     1       0.1524902682E-03       7   13    1         0.8738253676E-02      0.1306375580E-01
          0                 6           1             7   13     1      -0.6064676635E-05       7   13    1        -0.3570685717E-03      0.3843230798E-03

    ------------------------------------------------
       NWT REQUIRED            6 OUTER ITERATIONS 
       AND A TOTAL OF         11 INNER ITERATIONS.
    ------------------------------------------------

 NO OUTPUT CONTROL FOR STRESS PERIOD    7   TIME STEP   12
 
 SOLVING FOR HEAD 
                                                   Max.-Head-Change                         Max.-Flux-Residual
  Residual-Control   Outer-Iter.   Inner-Iter.     Column Row Layer    Maximum-Head-Change  Column Row Layer    Maximum-Flux-Residual          L2-NORM 
          0                 1           2             5    8     1       0.2265332834E+00       5    8    1         0.1235004286E+02      0.2903854166E+02
          0                 2           2             5    8     1      -0.9013742541E-01       5    8    1        -0.4984956499E+01      0.1182956527E+02
          0                 3           2             4    7     1       0.7368907126E-01       5    8    1         0.4098946355E+01      0.1003587635E+02
          0                 4           2             4    7     1      -0.2932186266E-02       5    8    1        -0.1676216320E+00      0.4129826578E+00
          0                 5           1             4    7     1       0.3615508076E-04       5    8    1         0.2122451897E-02      0.5507771981E-02

    ------------------------------------------------
       NWT REQUIRED            5 OUTER ITERATIONS 
       AND A TOTAL OF          9 INNER ITERATIONS.
    ------------------------------------------------

 NO OUTPUT CONTROL FOR STRESS PERIOD    7   TIME STEP   13
 
 SOLVING FOR HEAD 
                                                   Max.-Head-Change                         Max.-Flux-Residual
  Residual-Control   Outer-Iter.   Inner-Iter.     Column Row Layer    Maximum-Head-Change  Column Row Layer    Maximum-Flux-Residual          L2-NORM 
          0                 1           2             5    8     1       0.2161251978E+00       5    8    1         0.1177166618E+02      0.2801623274E+02
          0                 2           2             5    8     1      -0.2102244749E-01       5    8    1        -0.1177122217E+01      0.2811020680E+01
          0                 3           2             5    8     1       0.1431557003E-02       5    8    1         0.8239901080E-01      0.1967604630E+00
          0                 4           1             5    8     1      -0.5696296386E-04       5    8    1        -0.3370122287E-02      0.8046776147E-02

    ------------------------------------------------
       NWT REQUIRED            4 OUTER ITERATIONS 
       AND A TOTAL OF          7 INNER ITERATIONS.
    ------------------------------------------------

 NO OUTPUT CONTROL FOR STRESS PERIOD    7   TIME STEP   14
 
 SOLVING FOR HEAD 
     PET DIFF ERROR     6    4    0.2245311694E-08    0.1500000053E-06
     PET DIFF ERROR     6    5    0.2245311645E-08    0.1500000053E-06
     PET DIFF ERROR     7    4    0.2245311694E-08    0.1500000053E-06
     PET DIFF ERROR     7    5    0.2245314982E-08    0.1500000053E-06
     PET DIFF ERROR     8    4    0.2245314982E-08    0.1500000053E-06
     PET DIFF ERROR     8    5    0.2245311669E-08    0.1500000053E-06
                                                   Max.-Head-Change                         Max.-Flux-Residual
  Residual-Control   Outer-Iter.   Inner-Iter.     Column Row Layer    Maximum-Head-Change  Column Row Layer    Maximum-Flux-Residual          L2-NORM 
          0                 1           2             5    8     1       0.2063863783E+00       5    8    1         0.1123086128E+02      0.2704753443E+02
     PET DIFF ERROR     6    4    0.2245311694E-08    0.1500000053E-06
     PET DIFF ERROR     6    5    0.2245311645E-08    0.1500000053E-06
     PET DIFF ERROR     7    4    0.2245311694E-08    0.1500000053E-06
     PET DIFF ERROR     7    5    0.2245314982E-08    0.1500000053E-06
     PET DIFF ERROR     8    4    0.2245314982E-08    0.1500000053E-06
     PET DIFF ERROR     8    5    0.2245311669E-08    0.1500000053E-06
          0                 2           2             5    8     1      -0.2007517128E-01       5    8    1        -0.1123044866E+01      0.2704546349E+01
     PET DIFF ERROR     6    4    0.2245311694E-08    0.1500000053E-06
     PET DIFF ERROR     6    5    0.2245311645E-08    0.1500000053E-06
     PET DIFF ERROR     7    4    0.2245311694E-08    0.1500000053E-06
     PET DIFF ERROR     7    5    0.2245314982E-08    0.1500000053E-06
     PET DIFF ERROR     8    4    0.2245314982E-08    0.1500000053E-06
     PET DIFF ERROR     8    5    0.2245311669E-08    0.1500000053E-06
          0                 3           2             5    8     1       0.1367050562E-02       5    8    1         0.7861356491E-01      0.1893141743E+00
     PET DIFF ERROR     6    4    0.2245311694E-08    0.1500000053E-06
     PET DIFF ERROR     6    5    0.2245311645E-08    0.1500000053E-06
     PET DIFF ERROR     7    4    0.2245311694E-08    0.1500000053E-06
     PET DIFF ERROR     7    5    0.2245314982E-08    0.1500000053E-06
     PET DIFF ERROR     8    4    0.2245314982E-08    0.1500000053E-06
     PET DIFF ERROR     8    5    0.2245311669E-08    0.1500000053E-06
          0                 4           1             5    8     1      -0.5439619447E-04       5    8    1        -0.3215297488E-02      0.7742619856E-02

    ------------------------------------------------
       NWT REQUIRED            4 OUTER ITERATIONS 
       AND A TOTAL OF          7 INNER ITERATIONS.
    ------------------------------------------------

 OUTPUT CONTROL FOR STRESS PERIOD    7   TIME STEP   15
    PRINT BUDGET
    SAVE BUDGET
 UBDSV1 SAVING "         STORAGE" ON UNIT 102 AT TIME STEP 15, STRESS PERIOD7
 UBDSV2 SAVING "   CONSTANT HEAD" ON UNIT 102 AT TIME STEP 15, STRESS PERIOD 7
 UBDSV1 SAVING "FLOW RIGHT FACE " ON UNIT 102 AT TIME STEP 15, STRESS PERIOD7
 UBDSV1 SAVING "FLOW FRONT FACE " ON UNIT 102 AT TIME STEP 15, STRESS PERIOD7

  HEAD DEP BOUNDS   PERIOD    7   STEP    15
 BOUNDARY      1   LAYER   1   ROW    13   COL     1   RATE   -0.294063    
 BOUNDARY      2   LAYER   1   ROW    14   COL     9   RATE    0.285765    



 STREAM LISTING     PERIOD      7   STEP       15

 LAYER ROW COL. STREAM  RCH.  FLOW INTO     FLOW TO   FLOW OUT OF   OVRLND.     DIRECT     STREAM       STREAM     STREAM     STREAM   STREAMBED  STREAMBED
                SEG.NO.  NO.  STRM. RCH.    AQUIFER    STRM. RCH.    RUNOFF     PRECIP       ET          HEAD       DEPTH      WIDTH   CONDCTNC.   GRADIENT

   1    1    1     1     1    6.2250E+01  3.7978E-01   6.1870E+01  0.000E+00  0.000E+00  0.000E+00  1.09460E+03  1.553E+00  1.854E+01  8.342E-02  1.518E+00
   1    2    2     1     2    6.1870E+01  5.8817E-01   6.1282E+01  0.000E+00  0.000E+00  0.000E+00  1.08961E+03  1.547E+00  1.848E+01  1.294E-01  1.516E+00
   1    3    3     1     3    6.1282E+01  5.0163E-01   6.0781E+01  0.000E+00  0.000E+00  0.000E+00  1.08396E+03  1.540E+00  1.841E+01  1.105E-01  1.513E+00
   1    3    4     1     4    6.0781E+01  4.6194E-01   6.0319E+01  0.000E+00  0.000E+00  0.000E+00  1.07894E+03  1.534E+00  1.836E+01  1.019E-01  1.511E+00
   1    4    5     2     1    5.8319E+01  3.9026E-01   5.7928E+01  0.000E+00  0.000E+00  0.000E+00  1.07394E+03  2.003E+00  1.200E+01  7.800E-02  1.668E+00
   1    5    6     2     2    5.7928E+01  2.9977E-01   5.7629E+01  0.000E+00  0.000E+00  0.000E+00  1.06851E+03  1.996E+00  1.200E+01  6.000E-02  1.665E+00
   1    6    6     2     3    5.7629E+01  2.9940E-01   5.7329E+01  0.000E+00  0.000E+00  0.000E+00  1.06378E+03  1.990E+00  1.200E+01  6.000E-02  1.663E+00
   1    7    6     2     4    5.7329E+01  2.9903E-01   5.7030E+01  0.000E+00  0.000E+00  0.000E+00  1.05906E+03  1.984E+00  1.200E+01  6.000E-02  1.661E+00
   1    8    6     2     5    5.7030E+01  2.9865E-01   5.6732E+01  0.000E+00  0.000E+00  0.000E+00  1.05434E+03  1.978E+00  1.200E+01  6.000E-02  1.659E+00
   1    3    5     3     1    2.0000E+00  2.8252E-01   1.7175E+00  0.000E+00  0.000E+00  0.000E+00  1.07555E+03  1.909E+00  9.636E+00  7.227E-02  1.955E+00
   1    3    6     3     2    1.7175E+00  2.4905E-01   1.4684E+00  0.000E+00  0.000E+00  0.000E+00  1.07264E+03  1.727E+00  8.909E+00  6.682E-02  1.864E+00
   1    3    7     3     3    1.4684E+00  1.9718E-01   1.2712E+00  0.000E+00  0.000E+00  0.000E+00  1.06987E+03  1.555E+00  8.218E+00  5.547E-02  1.777E+00
   1    4    8     3     4    1.2712E+00  2.2567E-01   1.0456E+00  0.000E+00  0.000E+00  0.000E+00  1.06682E+03  1.364E+00  7.455E+00  6.709E-02  1.682E+00
   1    5    8     3     5    1.0456E+00  1.5790E-01   8.8768E-01  0.000E+00  0.000E+00  0.000E+00  1.06362E+03  1.164E+00  6.655E+00  4.991E-02  1.582E+00
   1    6    8     3     6    8.8768E-01  5.5980E-02   8.3170E-01  0.000E+00  0.000E+00  0.000E+00  1.06158E+03  1.036E+00  6.145E+00  1.844E-02  1.518E+00
   1    5   10     4     1    1.0000E+01  9.0919E-02   9.9091E+00  0.000E+00  0.000E+00  0.000E+00  1.07836E+03  6.368E-01  1.000E+01  2.500E-02  1.212E+00
   1    5    9     4     2    9.9091E+00  1.8158E-01   9.7275E+00  0.000E+00  0.000E+00  0.000E+00  1.07154E+03  6.315E-01  1.000E+01  5.000E-02  1.211E+00
   1    6    8     4     3    9.7275E+00  1.2689E-01   9.6006E+00  0.000E+00  0.000E+00  0.000E+00  1.06381E+03  6.256E-01  1.000E+01  3.500E-02  1.209E+00
   1    6    8     5     1    1.0432E+01  2.2686E-01   1.0205E+01  0.000E+00  0.000E+00  0.000E+00  1.05868E+03  6.790E-01  1.542E+01  6.166E-02  1.226E+00
   1    7    7     5     2    1.0205E+01  2.7894E-01   9.9265E+00  0.000E+00  0.000E+00  0.000E+00  1.05417E+03  6.732E-01  1.519E+01  7.594E-02  1.224E+00
   1    8    7     5     3    9.9265E+00  1.9221E-01   9.7343E+00  0.000E+00  0.000E+00  0.000E+00  1.04992E+03  6.676E-01  1.497E+01  5.241E-02  1.223E+00
   1    8    6     5     4    9.7343E+00  1.3577E-01   9.5985E+00  0.000E+00  0.000E+00  0.000E+00  1.04691E+03  6.637E-01  1.482E+01  3.706E-02  1.221E+00
   1    9    6     6     1    6.6330E+01  3.1138E-01   6.6019E+01  0.000E+00  0.000E+00  0.000E+00  1.04492E+03  2.190E+00  1.200E+01  6.000E-02  1.730E+00
   1   10    7     6     2    6.6019E+01  3.1101E-01   6.5708E+01  0.000E+00  0.000E+00  0.000E+00  1.04037E+03  2.184E+00  1.200E+01  6.000E-02  1.728E+00
   1   11    7     6     3    6.5708E+01  3.1064E-01   6.5397E+01  0.000E+00  0.000E+00  0.000E+00  1.03581E+03  2.177E+00  1.200E+01  6.000E-02  1.726E+00
   1   12    7     6     4    6.5397E+01  3.1027E-01   6.5087E+01  0.000E+00  0.000E+00  0.000E+00  1.03126E+03  2.171E+00  1.200E+01  6.000E-02  1.724E+00
   1   13    7     6     5    6.5087E+01  2.2310E-02   6.5065E+01  0.000E+00  0.000E+00  0.000E+00  1.02808E+03  2.168E+00  1.200E+01  2.400E-02  3.099E-01
   1   14    9     7     1    1.5000E+02  1.3359E+00   1.4866E+02  0.000E+00  0.000E+00  0.000E+00  1.03987E+03  2.288E+00  5.529E+01  5.593E-01  7.962E-01
   1   13    8     7     2    1.4866E+02  1.8207E+00   1.4684E+02  0.000E+00  0.000E+00  0.000E+00  1.03478E+03  2.279E+00  5.526E+01  6.148E-01  9.872E-01
   1   13    7     7     3    1.4684E+02  1.4200E+00   1.4542E+02  0.000E+00  0.000E+00  0.000E+00  1.02969E+03  2.271E+00  5.522E+01  5.585E-01  8.476E-01
   1   13    6     8     1    2.1049E+02  1.0301E+00   2.0946E+02  0.000E+00  0.000E+00  0.000E+00  1.02507E+03  3.196E+00  4.633E+01  4.722E-01  7.272E-01
   1   13    5     8     2    2.0946E+02  2.1834E-01   2.0924E+02  0.000E+00  0.000E+00  0.000E+00  1.01882E+03  3.192E+00  4.628E+01  4.716E-01  1.543E-01
   1   13    4     8     3    2.0924E+02 -2.0727E+00   2.1131E+02  0.000E+00  0.000E+00  0.000E+00  1.01257E+03  3.197E+00  4.636E+01  4.724E+00 -1.462E-01
   1   13    3     8     4    2.1131E+02 -3.2381E+00   2.1455E+02  0.000E+00  0.000E+00  0.000E+00  1.00634E+03  3.212E+00  4.658E+01  4.747E+00 -2.274E-01
   1   13    2     8     5    2.1455E+02 -2.2026E+00   2.1675E+02  0.000E+00  0.000E+00  0.000E+00  1.00010E+03  3.228E+00  4.680E+01  4.769E+00 -1.539E-01
   1   13    1     8     6    2.1675E+02 -1.7937E+00   2.1855E+02  0.000E+00  0.000E+00  0.000E+00  9.95114E+02  3.239E+00  4.696E+01  2.871E+00 -2.082E-01
   1    8    6     9     1    0.0000E+00  0.0000E+00   0.0000E+00  0.000E+00  0.000E+00  0.000E+00  1.07875E+03  0.000E+00  4.000E+00  0.000E+00  1.000E+00
   1    8    5     9     2    0.0000E+00  0.0000E+00   0.0000E+00  0.000E+00  0.000E+00  0.000E+00  1.07825E+03  0.000E+00  4.000E+00  0.000E+00  1.000E+00



     PET DIFF ERROR     6    4    0.2245311694E-08    0.1500000053E-06
     PET DIFF ERROR     6    5    0.2245311645E-08    0.1500000053E-06
     PET DIFF ERROR     7    4    0.2245311694E-08    0.1500000053E-06
     PET DIFF ERROR     7    5    0.2245314982E-08    0.1500000053E-06
     PET DIFF ERROR     8    4    0.2245314982E-08    0.1500000053E-06
     PET DIFF ERROR     8    5    0.2245311669E-08    0.1500000053E-06
 UBDSV3 SAVING "           GW ET" ON UNIT  61 AT TIME STEP 15, STRESS PERIOD 7
 UBDSV3 SAVING "    UZF RECHARGE" ON UNIT  61 AT TIME STEP 15, STRESS PERIOD 7
 UBDSV3 SAVING " SURFACE LEAKAGE" ON UNIT  61 AT TIME STEP 15, STRESS PERIOD 7
 UBDSV3 SAVING "       HORT+DUNN" ON UNIT  61 AT TIME STEP 15, STRESS PERIOD 7
 UBDSV3 SAVING "  STORAGE CHANGE" ON UNIT  61 AT TIME STEP 15, STRESS PERIOD 7


UNSATURATED ZONE PACKAGE VOLUMETRIC BUDGET FOR  TIME STEP    15 STRESS PERIOD    7
  ------------------------------------------------------------------------------



     CUMULATIVE VOLUMES      L**3       RATES FOR THIS TIME STEP      L**3/T
     ------------------                 ------------------------

           IN:                                      IN:
           ---                                      ---
        INFILTRATION =   663923832.7616          INFILTRATION =           0.8475

          OUT:                                     OUT:
          ----                                     ----
              UZF ET =    71292049.2892                UZF ET =          23.6543
        UZF RECHARGE =       73224.0000          UZF RECHARGE =       0.0000E+00

            IN - OUT =   592558559.4725              IN - OUT =         -22.8068

          STORAGE:                                 STORAGE:
          --------                                 --------
      STORAGE CHANGE =   593036288.1661        STORAGE CHANGE =         -22.8189

 PERCENT DISCREPANCY IS DIFFERENCE BETWEEN IN-OUT MINUS CHANGE IN STORAGE
 DIVIDED BY THE AVERAGE OF IN AND OUT TIMES 100

 PERCENT DISCREPANCY =          -0.02     PERCENT DISCREPANCY =           0.05






 

            AG WELLS      PERIOD    7   STEP  15
 AG WELL      1   LAYER   1   ROW     6   COL     4   RATE     0.00000    
 AG WELL      2   LAYER   1   ROW     6   COL     5   RATE     0.00000    
 AG WELL      3   LAYER   1   ROW     7   COL     4   RATE     0.00000    
 AG WELL      4   LAYER   1   ROW     7   COL     5   RATE     0.00000    
 AG WELL      5   LAYER   1   ROW     8   COL     4   RATE     0.00000    
 AG WELL      6   LAYER   1   ROW     8   COL     5   RATE     0.00000    
 
 

   DIVERSION SEGMENTS     PERIOD    7   STEP  15
 SEGMENT      9   RATE     0.00000    
 
 

        SW IRRIGATION     PERIOD    7   STEP  15
 SEGMENT      9   ROW     6   COL     4   RATE     0.00000    
 SEGMENT      9   ROW     6   COL     5   RATE     0.00000    
 SEGMENT      9   ROW     7   COL     4   RATE     0.00000    
 SEGMENT      9   ROW     7   COL     5   RATE     0.00000    
 SEGMENT      9   ROW     8   COL     4   RATE     0.00000    
 SEGMENT      9   ROW     8   COL     5   RATE     0.00000    
 
 

        GW IRRIGATION     PERIOD    7   STEP  15
 AG WELL      1   ROW     6   COL     4   RATE     0.00000    
 AG WELL      2   ROW     6   COL     5   RATE     0.00000    
 AG WELL      3   ROW     7   COL     4   RATE     0.00000    
 AG WELL      4   ROW     7   COL     5   RATE     0.00000    
 AG WELL      5   ROW     8   COL     4   RATE     0.00000    
 AG WELL      6   ROW     8   COL     5   RATE     0.00000    
 
1
  VOLUMETRIC BUDGET FOR AGRICULTURAL FIELDS AT  END OF TIME STEP   15, STRESS PERIOD   7
  ------------------------------------------------------------------------------

     CUMULATIVE VOLUMES      L**3       RATES FOR THIS TIME STEP      L**3/T
     ------------------                 ------------------------

           IN:                                      IN:
           ---                                      ---
               AG WELLS  =   582771456.0000                 AG WELLS  =           0.0000
      DIVERSION SEGMENTS =    68831200.0000        DIVERSION SEGMENTS =           0.0000
       IRRIGATION PONDS  =           0.0000         IRRIGATION PONDS  =           0.0000
           GW IRRIGATION =           0.0000             GW IRRIGATION =           0.0000
           SW IRRIGATION =           0.0000             SW IRRIGATION =           0.0000
        SYSTEM LOSSES GW =           0.0000          SYSTEM LOSSES GW =           0.0000
        SYSTEM LOSSES SW =           0.0000          SYSTEM LOSSES SW =           0.0000

                TOTAL IN =   651602688.0000                  TOTAL IN =           0.0000

          OUT:                                     OUT:
          ----                                     ----
               AG WELLS  =           0.0000                 AG WELLS  =           0.0000
      DIVERSION SEGMENTS =           0.0000        DIVERSION SEGMENTS =           0.0000
       IRRIGATION PONDS  =           0.0000         IRRIGATION PONDS  =           0.0000
           GW IRRIGATION =   582771456.0000             GW IRRIGATION =           0.0000
           SW IRRIGATION =    68832560.0000             SW IRRIGATION =           0.0000
        SYSTEM LOSSES GW =           0.0000          SYSTEM LOSSES GW =           0.0000
        SYSTEM LOSSES SW =           0.0000          SYSTEM LOSSES SW =           0.0000

               TOTAL OUT =   651604032.0000                 TOTAL OUT =           0.0000

                IN - OUT =       -1344.0000                  IN - OUT =           0.0000

     PERCENT DISCREPANCY =          -0.00         PERCENT DISCREPANCY =           0.00



1
  VOLUMETRIC BUDGET FOR ENTIRE MODEL AT END OF TIME STEP   15, STRESS PERIOD   7
  ------------------------------------------------------------------------------

     CUMULATIVE VOLUMES      L**3       RATES FOR THIS TIME STEP      L**3/T
     ------------------                 ------------------------

           IN:                                      IN:
           ---                                      ---
             STORAGE     =   759930560.0000               STORAGE     =          55.4204
       CONSTANT HEAD     =           0.0000         CONSTANT HEAD     =           0.0000
     HEAD DEP BOUNDS     =     4157568.7500       HEAD DEP BOUNDS     =           0.2858
      STREAM LEAKAGE     =   177571008.0000        STREAM LEAKAGE     =          13.0108
        UZF RECHARGE     =       73223.9531          UZF RECHARGE     =           0.0000
               GW ET     =           0.0000                 GW ET     =           0.0000
     SURFACE LEAKAGE     =           0.0000       SURFACE LEAKAGE     =           0.0000
           AG WELLS      =           0.0000             AG WELLS      =           0.0000

                TOTAL IN =   941732352.0000                  TOTAL IN =          68.7169

          OUT:                                     OUT:
          ----                                     ----
             STORAGE     =   200409552.0000               STORAGE     =          58.8874
       CONSTANT HEAD     =           0.0000         CONSTANT HEAD     =           0.0000
     HEAD DEP BOUNDS     =     4245401.5000       HEAD DEP BOUNDS     =           0.2941
      STREAM LEAKAGE     =   153199296.0000        STREAM LEAKAGE     =           9.3071
        UZF RECHARGE     =           0.0000          UZF RECHARGE     =           0.0000
               GW ET     =     1110174.0000                 GW ET     =           0.2284
     SURFACE LEAKAGE     =           0.0000       SURFACE LEAKAGE     =           0.0000
           AG WELLS      =   582771456.0000             AG WELLS      =           0.0000

               TOTAL OUT =   941735936.0000                 TOTAL OUT =          68.7169

                IN - OUT =       -3584.0000                  IN - OUT =       1.5259E-05

     PERCENT DISCREPANCY =          -0.00         PERCENT DISCREPANCY =           0.00






         TIME SUMMARY AT END OF TIME STEP   15 IN STRESS PERIOD    7
                    SECONDS     MINUTES      HOURS       DAYS        YEARS
                    -----------------------------------------------------------
   TIME STEP LENGTH  87667.      1461.1      24.352      1.0147     2.77799E-03
 STRESS PERIOD TIME 1.31500E+06  21917.      365.28      15.220     4.16698E-02
         TOTAL TIME 1.45514E+07 2.42524E+05  4042.1      168.42     0.46111    
1
 
 SOLVING FOR HEAD 
                                                   Max.-Head-Change                         Max.-Flux-Residual
  Residual-Control   Outer-Iter.   Inner-Iter.     Column Row Layer    Maximum-Head-Change  Column Row Layer    Maximum-Flux-Residual          L2-NORM 
          0                 1           2             5    8     1       0.1972661462E+00       5    8    1         0.1072478947E+02      0.2613698212E+02
          0                 2           2             4    7     1      -0.1877637398E+01       5    8    1        -0.1010724406E+03      0.2472613703E+03
          0                 3           2             4    7     1       0.1278408293E+00       5    8    1         0.7073051428E+01      0.1735269238E+02
          0                 4           2             4    7     1      -0.5086998882E-02       5    8    1        -0.2891877471E+00      0.7237684666E+00
          0                 5           2             7   13     1       0.1523429579E-03       7   13    1         0.8729822143E-02      0.1299470808E-01
          0                 6           1             7   13     1      -0.6058168581E-05       7   13    1        -0.3566836904E-03      0.3837558442E-03

    ------------------------------------------------
       NWT REQUIRED            6 OUTER ITERATIONS 
       AND A TOTAL OF         11 INNER ITERATIONS.
    ------------------------------------------------

 NO OUTPUT CONTROL FOR STRESS PERIOD    7   TIME STEP   16
 
 SOLVING FOR HEAD 
                                                   Max.-Head-Change                         Max.-Flux-Residual
  Residual-Control   Outer-Iter.   Inner-Iter.     Column Row Layer    Maximum-Head-Change  Column Row Layer    Maximum-Flux-Residual          L2-NORM 
          0                 1           2             5    8     1       0.2427862434E+00       5    8    1         0.1323360570E+02      0.3115011788E+02
          0                 2           2             5    8     1      -0.9171923562E-01       5    8    1        -0.5073305962E+01      0.1203050226E+02
          0                 3           2             4    7     1       0.7376550653E-01       5    8    1         0.4105130898E+01      0.1004912474E+02
          0                 4           2             4    7     1      -0.2935227594E-02       5    8    1        -0.1678763832E+00      0.4147098434E+00
          0                 5           1             4    7     1       0.3619258143E-04       5    8    1         0.2125802923E-02      0.5628207531E-02

    ------------------------------------------------
       NWT REQUIRED            5 OUTER ITERATIONS 
       AND A TOTAL OF          9 INNER ITERATIONS.
    ------------------------------------------------

 NO OUTPUT CONTROL FOR STRESS PERIOD    7   TIME STEP   17
 
 SOLVING FOR HEAD 
                                                   Max.-Head-Change                         Max.-Flux-Residual
  Residual-Control   Outer-Iter.   Inner-Iter.     Column Row Layer    Maximum-Head-Change  Column Row Layer    Maximum-Flux-Residual          L2-NORM 
          0                 1           2             5    8     1       0.2316738725E+00       5    8    1         0.1261618796E+02      0.3005794660E+02
          0                 2           2             5    8     1      -0.2253481802E-01       5    8    1        -0.1261568047E+01      0.3013959071E+01
          0                 3           2             5    8     1       0.1534544724E-02       5    8    1         0.8831028147E-01      0.2109683663E+00
          0                 4           1             5    8     1      -0.6106093747E-04       5    8    1        -0.3611893320E-02      0.8627998813E-02

    ------------------------------------------------
       NWT REQUIRED            4 OUTER ITERATIONS 
       AND A TOTAL OF          7 INNER ITERATIONS.
    ------------------------------------------------

 NO OUTPUT CONTROL FOR STRESS PERIOD    7   TIME STEP   18
 
 SOLVING FOR HEAD 
     PET DIFF ERROR     6    4    0.2245318269E-08    0.1500000053E-06
     PET DIFF ERROR     6    5    0.2245318220E-08    0.1500000053E-06
     PET DIFF ERROR     7    4    0.2245318269E-08    0.1500000053E-06
     PET DIFF ERROR     7    5    0.2245318269E-08    0.1500000053E-06
     PET DIFF ERROR     8    4    0.2245318269E-08    0.1500000053E-06
     PET DIFF ERROR     8    5    0.2245318269E-08    0.1500000053E-06
                                                   Max.-Head-Change                         Max.-Flux-Residual
  Residual-Control   Outer-Iter.   Inner-Iter.     Column Row Layer    Maximum-Head-Change  Column Row Layer    Maximum-Flux-Residual          L2-NORM 
          0                 1           2             5    8     1       0.2212742188E+00       5    8    1         0.1203877773E+02      0.2902419743E+02
     PET DIFF ERROR     6    4    0.2245318269E-08    0.1500000053E-06
     PET DIFF ERROR     6    5    0.2245318220E-08    0.1500000053E-06
     PET DIFF ERROR     7    4    0.2245318269E-08    0.1500000053E-06
     PET DIFF ERROR     7    5    0.2245318269E-08    0.1500000053E-06
     PET DIFF ERROR     8    4    0.2245318269E-08    0.1500000053E-06
     PET DIFF ERROR     8    5    0.2245318269E-08    0.1500000053E-06
          0                 2           2             5    8     1      -0.2152326698E-01       5    8    1        -0.1203830600E+01      0.2902187600E+01
     PET DIFF ERROR     6    4    0.2245318269E-08    0.1500000053E-06
     PET DIFF ERROR     6    5    0.2245318220E-08    0.1500000053E-06
     PET DIFF ERROR     7    4    0.2245318269E-08    0.1500000053E-06
     PET DIFF ERROR     7    5    0.2245318269E-08    0.1500000053E-06
     PET DIFF ERROR     8    4    0.2245318269E-08    0.1500000053E-06
     PET DIFF ERROR     8    5    0.2245318269E-08    0.1500000053E-06
          0                 3           2             5    8     1       0.1465661344E-02       5    8    1         0.8426862468E-01      0.2031488283E+00
     PET DIFF ERROR     6    4    0.2245318269E-08    0.1500000053E-06
     PET DIFF ERROR     6    5    0.2245318220E-08    0.1500000053E-06
     PET DIFF ERROR     7    4    0.2245318269E-08    0.1500000053E-06
     PET DIFF ERROR     7    5    0.2245318269E-08    0.1500000053E-06
     PET DIFF ERROR     8    4    0.2245318269E-08    0.1500000053E-06
     PET DIFF ERROR     8    5    0.2245318269E-08    0.1500000053E-06
          0                 4           1             5    8     1      -0.5832000570E-04       5    8    1        -0.3446589489E-02      0.8308430279E-02

    ------------------------------------------------
       NWT REQUIRED            4 OUTER ITERATIONS 
       AND A TOTAL OF          7 INNER ITERATIONS.
    ------------------------------------------------

 NO OUTPUT CONTROL FOR STRESS PERIOD    7   TIME STEP   19
     PET DIFF ERROR     6    4    0.2245318269E-08    0.1500000053E-06
     PET DIFF ERROR     6    5    0.2245318220E-08    0.1500000053E-06
     PET DIFF ERROR     7    4    0.2245318269E-08    0.1500000053E-06
     PET DIFF ERROR     7    5    0.2245318269E-08    0.1500000053E-06
     PET DIFF ERROR     8    4    0.2245318269E-08    0.1500000053E-06
     PET DIFF ERROR     8    5    0.2245318269E-08    0.1500000053E-06
 
 SOLVING FOR HEAD 
                                                   Max.-Head-Change                         Max.-Flux-Residual
  Residual-Control   Outer-Iter.   Inner-Iter.     Column Row Layer    Maximum-Head-Change  Column Row Layer    Maximum-Flux-Residual          L2-NORM 
          0                 1           2             5    8     1       0.2115339181E+00       5    8    1         0.1149838387E+02      0.2805186254E+02
          0                 2           2             4    7     1      -0.1878787824E+01       5    8    1        -0.1011497945E+03      0.2474340400E+03
          0                 3           2             4    7     1       0.1279191861E+00       5    8    1         0.7078488452E+01      0.1736488497E+02
          0                 4           2             4    7     1      -0.5090116662E-02       5    8    1        -0.2894121866E+00      0.7235592433E+00
          0                 5           2             7   13     1       0.1521987845E-03       7   13    1         0.8721563077E-02      0.1293061339E-01
          0                 6           1             7   13     1      -0.6056434727E-05       7   13    1        -0.3565774405E-03      0.3829018652E-03

    ------------------------------------------------
       NWT REQUIRED            6 OUTER ITERATIONS 
       AND A TOTAL OF         11 INNER ITERATIONS.
    ------------------------------------------------

 NO OUTPUT CONTROL FOR STRESS PERIOD    7   TIME STEP   20
 
 SOLVING FOR HEAD 
                                                   Max.-Head-Change                         Max.-Flux-Residual
  Residual-Control   Outer-Iter.   Inner-Iter.     Column Row Layer    Maximum-Head-Change  Column Row Layer    Maximum-Flux-Residual          L2-NORM 
          0                 1           2             5    8     1       0.2564554463E+00       5    8    1         0.1397402572E+02      0.3298919589E+02
          0                 2           2             5    8     1      -0.9304975636E-01       5    8    1        -0.5147341761E+01      0.1220559861E+02
          0                 3           2             4    7     1       0.7384204393E-01       5    8    1         0.4110313490E+01      0.1006155301E+02
          0                 4           2             4    7     1      -0.2938273048E-02       5    8    1        -0.1680896901E+00      0.4152551008E+00
          0                 5           1             4    7     1       0.3623013328E-04       5    8    1         0.2128597265E-02      0.5643131596E-02

    ------------------------------------------------
       NWT REQUIRED            5 OUTER ITERATIONS 
       AND A TOTAL OF          9 INNER ITERATIONS.
    ------------------------------------------------

 NO OUTPUT CONTROL FOR STRESS PERIOD    7   TIME STEP   21
 
 SOLVING FOR HEAD 
                                                   Max.-Head-Change                         Max.-Flux-Residual
  Residual-Control   Outer-Iter.   Inner-Iter.     Column Row Layer    Maximum-Head-Change  Column Row Layer    Maximum-Flux-Residual          L2-NORM 
          0                 1           2             5    8     1       0.2447972303E+00       5    8    1         0.1332644676E+02      0.3184282577E+02
          0                 2           2             5    8     1      -0.2381127953E-01       5    8    1        -0.1332588145E+01      0.3191672985E+01
          0                 3           2             5    8     1       0.1621467836E-02       5    8    1         0.9328174516E-01      0.2233832143E+00
          0                 4           1             5    8     1      -0.6451968557E-04       5    8    1        -0.3815226215E-02      0.9135912647E-02

    ------------------------------------------------
       NWT REQUIRED            4 OUTER ITERATIONS 
       AND A TOTAL OF          7 INNER ITERATIONS.
    ------------------------------------------------

 NO OUTPUT CONTROL FOR STRESS PERIOD    7   TIME STEP   22
 
 SOLVING FOR HEAD 
     PET DIFF ERROR     6    4    0.2245318220E-08    0.1500000053E-06
     PET DIFF ERROR     6    5    0.2245318255E-08    0.1500000053E-06
     PET DIFF ERROR     7    4    0.2245318220E-08    0.1500000053E-06
     PET DIFF ERROR     7    5    0.2245318220E-08    0.1500000053E-06
     PET DIFF ERROR     8    4    0.2245311694E-08    0.1500000053E-06
     PET DIFF ERROR     8    5    0.2245318220E-08    0.1500000053E-06
                                                   Max.-Head-Change                         Max.-Flux-Residual
  Residual-Control   Outer-Iter.   Inner-Iter.     Column Row Layer    Maximum-Head-Change  Column Row Layer    Maximum-Flux-Residual          L2-NORM 
          0                 1           2             5    8     1       0.2338839695E+00       5    8    1         0.1272067706E+02      0.3075816528E+02
     PET DIFF ERROR     6    4    0.2245318220E-08    0.1500000053E-06
     PET DIFF ERROR     6    5    0.2245318255E-08    0.1500000053E-06
     PET DIFF ERROR     7    4    0.2245318220E-08    0.1500000053E-06
     PET DIFF ERROR     7    5    0.2245318220E-08    0.1500000053E-06
     PET DIFF ERROR     8    4    0.2245311694E-08    0.1500000053E-06
     PET DIFF ERROR     8    5    0.2245318220E-08    0.1500000053E-06
          0                 2           2             5    8     1      -0.2274977412E-01       5    8    1        -0.1272015138E+01      0.3077527325E+01
     PET DIFF ERROR     6    4    0.2245318220E-08    0.1500000053E-06
     PET DIFF ERROR     6    5    0.2245318255E-08    0.1500000053E-06
     PET DIFF ERROR     7    4    0.2245318220E-08    0.1500000053E-06
     PET DIFF ERROR     7    5    0.2245318220E-08    0.1500000053E-06
     PET DIFF ERROR     8    4    0.2245311694E-08    0.1500000053E-06
     PET DIFF ERROR     8    5    0.2245318220E-08    0.1500000053E-06
          0                 3           2             5    8     1       0.1549182693E-02       5    8    1         0.8904159542E-01      0.2154162145E+00
     PET DIFF ERROR     6    4    0.2245318220E-08    0.1500000053E-06
     PET DIFF ERROR     6    5    0.2245318255E-08    0.1500000053E-06
     PET DIFF ERROR     7    4    0.2245318220E-08    0.1500000053E-06
     PET DIFF ERROR     7    5    0.2245318220E-08    0.1500000053E-06
     PET DIFF ERROR     8    4    0.2245311694E-08    0.1500000053E-06
     PET DIFF ERROR     8    5    0.2245318220E-08    0.1500000053E-06
          0                 4           1             5    8     1      -0.6164339448E-04       5    8    1        -0.3641804012E-02      0.8809789771E-02

    ------------------------------------------------
       NWT REQUIRED            4 OUTER ITERATIONS 
       AND A TOTAL OF          7 INNER ITERATIONS.
    ------------------------------------------------

 NO OUTPUT CONTROL FOR STRESS PERIOD    7   TIME STEP   23
     PET DIFF ERROR     6    4    0.2245318220E-08    0.1500000053E-06
     PET DIFF ERROR     6    5    0.2245318255E-08    0.1500000053E-06
     PET DIFF ERROR     7    4    0.2245318220E-08    0.1500000053E-06
     PET DIFF ERROR     7    5    0.2245318220E-08    0.1500000053E-06
     PET DIFF ERROR     8    4    0.2245311694E-08    0.1500000053E-06
     PET DIFF ERROR     8    5    0.2245318220E-08    0.1500000053E-06
 
 SOLVING FOR HEAD 
                                                   Max.-Head-Change                         Max.-Flux-Residual
  Residual-Control   Outer-Iter.   Inner-Iter.     Column Row Layer    Maximum-Head-Change  Column Row Layer    Maximum-Flux-Residual          L2-NORM 
          0                 1           2             5    8     1       0.2236599776E+00       5    8    1         0.1215359477E+02      0.2973734230E+02
          0                 2           2             4    7     1      -0.1879926625E+01       5    8    1        -0.1012153106E+03      0.2475893072E+03
          0                 3           2             4    7     1       0.1279967328E+00       5    8    1         0.7083091648E+01      0.1737582823E+02
          0                 4           2             4    7     1      -0.5093202304E-02       5    8    1        -0.2896020025E+00      0.7236611119E+00
          0                 5           2             7   13     1       0.1520399773E-03       7   13    1         0.8712476070E-02      0.1290321354E-01
          0                 6           1             7   13     1      -0.6047261420E-05       7   13    1        -0.3560414541E-03      0.3825067617E-03

    ------------------------------------------------
       NWT REQUIRED            6 OUTER ITERATIONS 
       AND A TOTAL OF         11 INNER ITERATIONS.
    ------------------------------------------------

 NO OUTPUT CONTROL FOR STRESS PERIOD    7   TIME STEP   24
 
 SOLVING FOR HEAD 
                                                   Max.-Head-Change                         Max.-Flux-Residual
  Residual-Control   Outer-Iter.   Inner-Iter.     Column Row Layer    Maximum-Head-Change  Column Row Layer    Maximum-Flux-Residual          L2-NORM 
          0                 1           2             5    8     1       0.2681084506E+00       5    8    1         0.1460308124E+02      0.3460471725E+02
          0                 2           2             5    8     1      -0.9418419751E-01       5    8    1        -0.5210241731E+01      0.1236238445E+02
          0                 3           2             4    7     1       0.7391750250E-01       5    8    1         0.4114716574E+01      0.1007263648E+02
          0                 4           2             4    7     1      -0.2941275622E-02       5    8    1        -0.1682707679E+00      0.4157199642E+00
          0                 5           1             4    7     1       0.3626715609E-04       5    8    1         0.2130959605E-02      0.5649447792E-02

    ------------------------------------------------
       NWT REQUIRED            5 OUTER ITERATIONS 
       AND A TOTAL OF          9 INNER ITERATIONS.
    ------------------------------------------------

 NO OUTPUT CONTROL FOR STRESS PERIOD    7   TIME STEP   25
 
 SOLVING FOR HEAD 
                                                   Max.-Head-Change                         Max.-Flux-Residual
  Residual-Control   Outer-Iter.   Inner-Iter.     Column Row Layer    Maximum-Head-Change  Column Row Layer    Maximum-Flux-Residual          L2-NORM 
          0                 1           2             5    8     1       0.2560223147E+00       5    8    1         0.1393193325E+02      0.3341592980E+02
          0                 2           2             5    8     1      -0.2490309905E-01       5    8    1        -0.1393131579E+01      0.3348526778E+01
          0                 3           2             5    8     1       0.1695817431E-02       5    8    1         0.9751983671E-01      0.2343897739E+00
          0                 4           1             5    8     1      -0.6747812205E-04       5    8    1        -0.3988564165E-02      0.9585974380E-02

    ------------------------------------------------
       NWT REQUIRED            4 OUTER ITERATIONS 
       AND A TOTAL OF          7 INNER ITERATIONS.
    ------------------------------------------------

 NO OUTPUT CONTROL FOR STRESS PERIOD    7   TIME STEP   26
 
 SOLVING FOR HEAD 
     PET DIFF ERROR     6    4    0.2245318220E-08    0.1500000053E-06
     PET DIFF ERROR     6    5    0.2245318220E-08    0.1500000053E-06
     PET DIFF ERROR     7    4    0.2245318255E-08    0.1500000053E-06
     PET DIFF ERROR     7    5    0.2245311694E-08    0.1500000053E-06
     PET DIFF ERROR     8    4    0.2245318269E-08    0.1500000053E-06
     PET DIFF ERROR     8    5    0.2245318269E-08    0.1500000053E-06
                                                   Max.-Head-Change                         Max.-Flux-Residual
  Residual-Control   Outer-Iter.   Inner-Iter.     Column Row Layer    Maximum-Head-Change  Column Row Layer    Maximum-Flux-Residual          L2-NORM 
          0                 1           2             5    8     1       0.2447050230E+00       5    8    1         0.1330392606E+02      0.3229111951E+02
     PET DIFF ERROR     6    4    0.2245318220E-08    0.1500000053E-06
     PET DIFF ERROR     6    5    0.2245318220E-08    0.1500000053E-06
     PET DIFF ERROR     7    4    0.2245318255E-08    0.1500000053E-06
     PET DIFF ERROR     7    5    0.2245311694E-08    0.1500000053E-06
     PET DIFF ERROR     8    4    0.2245318269E-08    0.1500000053E-06
     PET DIFF ERROR     8    5    0.2245318269E-08    0.1500000053E-06
          0                 2           2             5    8     1      -0.2380229738E-01       5    8    1        -0.1330335164E+01      0.3230348206E+01
     PET DIFF ERROR     6    4    0.2245318220E-08    0.1500000053E-06
     PET DIFF ERROR     6    5    0.2245318220E-08    0.1500000053E-06
     PET DIFF ERROR     7    4    0.2245318255E-08    0.1500000053E-06
     PET DIFF ERROR     7    5    0.2245311694E-08    0.1500000053E-06
     PET DIFF ERROR     8    4    0.2245318269E-08    0.1500000053E-06
     PET DIFF ERROR     8    5    0.2245318269E-08    0.1500000053E-06
          0                 3           2             5    8     1       0.1620856311E-02       5    8    1         0.9312404511E-01      0.2261151036E+00
     PET DIFF ERROR     6    4    0.2245318220E-08    0.1500000053E-06
     PET DIFF ERROR     6    5    0.2245318220E-08    0.1500000053E-06
     PET DIFF ERROR     7    4    0.2245318255E-08    0.1500000053E-06
     PET DIFF ERROR     7    5    0.2245311694E-08    0.1500000053E-06
     PET DIFF ERROR     8    4    0.2245318269E-08    0.1500000053E-06
     PET DIFF ERROR     8    5    0.2245318269E-08    0.1500000053E-06
          0                 4           1             5    8     1      -0.6449535186E-04       5    8    1        -0.3808776241E-02      0.9247480026E-02

    ------------------------------------------------
       NWT REQUIRED            4 OUTER ITERATIONS 
       AND A TOTAL OF          7 INNER ITERATIONS.
    ------------------------------------------------

 NO OUTPUT CONTROL FOR STRESS PERIOD    7   TIME STEP   27
     PET DIFF ERROR     6    4    0.2245318220E-08    0.1500000053E-06
     PET DIFF ERROR     6    5    0.2245318220E-08    0.1500000053E-06
     PET DIFF ERROR     7    4    0.2245318255E-08    0.1500000053E-06
     PET DIFF ERROR     7    5    0.2245311694E-08    0.1500000053E-06
     PET DIFF ERROR     8    4    0.2245318269E-08    0.1500000053E-06
     PET DIFF ERROR     8    5    0.2245318269E-08    0.1500000053E-06
 
 SOLVING FOR HEAD 
                                                   Max.-Head-Change                         Max.-Flux-Residual
  Residual-Control   Outer-Iter.   Inner-Iter.     Column Row Layer    Maximum-Head-Change  Column Row Layer    Maximum-Flux-Residual          L2-NORM 
          0                 1           2             5    8     1       0.2340993733E+00       5    8    1         0.1271585216E+02      0.3123216359E+02
          0                 2           2             4    7     1      -0.1881039953E+01       5    8    1        -0.1012715317E+03      0.2477296937E+03
          0                 3           2             4    7     1       0.1280725314E+00       5    8    1         0.7087040236E+01      0.1738571011E+02
          0                 4           2             4    7     1      -0.5096218453E-02       5    8    1        -0.2897646535E+00      0.7238628641E+00
          0                 5           2             7   13     1       0.1518793153E-03       7   13    1         0.8703277038E-02      0.1288735184E-01
          0                 6           1             7   13     1      -0.6041056848E-05       7   13    1        -0.3556734516E-03      0.3819944466E-03

    ------------------------------------------------
       NWT REQUIRED            6 OUTER ITERATIONS 
       AND A TOTAL OF         11 INNER ITERATIONS.
    ------------------------------------------------

 NO OUTPUT CONTROL FOR STRESS PERIOD    7   TIME STEP   28
 
 SOLVING FOR HEAD 
                                                   Max.-Head-Change                         Max.-Flux-Residual
  Residual-Control   Outer-Iter.   Inner-Iter.     Column Row Layer    Maximum-Head-Change  Column Row Layer    Maximum-Flux-Residual          L2-NORM 
          0                 1           2             5    8     1       0.2781687695E+00       5    8    1         0.1514442405E+02      0.3603528445E+02
          0                 2           2             5    8     1      -0.9516375497E-01       5    8    1        -0.5264371028E+01      0.1250347050E+02
          0                 3           2             4    7     1       0.7399104129E-01       5    8    1         0.4118505707E+01      0.1008265634E+02
          0                 4           2             4    7     1      -0.2944201841E-02       5    8    1        -0.1684264725E+00      0.4161490006E+00
          0                 5           1             4    7     1       0.3630323797E-04       5    8    1         0.2132982557E-02      0.5659095372E-02

    ------------------------------------------------
       NWT REQUIRED            5 OUTER ITERATIONS 
       AND A TOTAL OF          9 INNER ITERATIONS.
    ------------------------------------------------

 NO OUTPUT CONTROL FOR STRESS PERIOD    7   TIME STEP   29
 
 SOLVING FOR HEAD 
                                                   Max.-Head-Change                         Max.-Flux-Residual
  Residual-Control   Outer-Iter.   Inner-Iter.     Column Row Layer    Maximum-Head-Change  Column Row Layer    Maximum-Flux-Residual          L2-NORM 
          0                 1           2             5    8     1       0.2657417164E+00       5    8    1         0.1445464587E+02      0.3481208653E+02
          0                 2           2             5    8     1       0.7927731180E-01       5    8    1         0.4393592630E+01      0.5419508800E+01
          0                 3           2             5    8     1       0.3520505963E-01       5    8    1         0.1940480702E+01      0.1953251700E+01
          0                 4           2             5    8     1       0.1563375437E-01       5    8    1         0.8623764570E+00      0.8624228262E+00
          0                 5           2             5    8     1       0.6942587947E-02       5    8    1         0.3829220182E+00      0.3829268508E+00
          0                 6           1             5    8     1       0.3083042552E-02       5    8    1         0.1700488684E+00      0.1700507619E+00
          0                 7           1             5    8     1       0.1369107836E-02       5    8    1         0.7551472020E-01      0.7551557036E-01
          0                 8           1             5    8     1       0.6079891044E-03       5    8    1         0.3353435017E-01      0.3353472718E-01
          0                 9           1             5    8     1       0.2699938918E-03       5    8    1         0.1489183035E-01      0.1489199776E-01
          0                10           1             5    8     1       0.1198980394E-03       5    8    1         0.6613117657E-02      0.6613192015E-02
          0                11           1             5    8     1       0.5324394491E-04       5    8    1         0.2936732643E-02      0.2936765671E-02

    ------------------------------------------------
       NWT REQUIRED           11 OUTER ITERATIONS 
       AND A TOTAL OF         16 INNER ITERATIONS.
    ------------------------------------------------

 NO OUTPUT CONTROL FOR STRESS PERIOD    7   TIME STEP   30



 STREAM LISTING     PERIOD      7   STEP       30

 LAYER ROW COL. STREAM  RCH.  FLOW INTO     FLOW TO   FLOW OUT OF   OVRLND.     DIRECT     STREAM       STREAM     STREAM     STREAM   STREAMBED  STREAMBED
                SEG.NO.  NO.  STRM. RCH.    AQUIFER    STRM. RCH.    RUNOFF     PRECIP       ET          HEAD       DEPTH      WIDTH   CONDCTNC.   GRADIENT

   1    1    1     1     1    5.7704E+01  3.6391E-01   5.7340E+01  0.000E+00  0.000E+00  0.000E+00  1.09454E+03  1.497E+00  1.798E+01  8.092E-02  1.499E+00
   1    2    2     1     2    5.7340E+01  5.6353E-01   5.6777E+01  0.000E+00  0.000E+00  0.000E+00  1.08955E+03  1.491E+00  1.792E+01  1.255E-01  1.497E+00
   1    3    3     1     3    5.6777E+01  4.8055E-01   5.6296E+01  0.000E+00  0.000E+00  0.000E+00  1.08390E+03  1.485E+00  1.786E+01  1.071E-01  1.495E+00
   1    3    4     1     4    5.6296E+01  4.4247E-01   5.5854E+01  0.000E+00  0.000E+00  0.000E+00  1.07889E+03  1.479E+00  1.780E+01  9.879E-02  1.493E+00
   1    4    5     2     1    5.3854E+01  3.8295E-01   5.3471E+01  0.000E+00  0.000E+00  0.000E+00  1.07384E+03  1.910E+00  1.200E+01  7.800E-02  1.637E+00
   1    5    6     2     2    5.3471E+01  2.9414E-01   5.3177E+01  0.000E+00  0.000E+00  0.000E+00  1.06841E+03  1.902E+00  1.200E+01  6.000E-02  1.634E+00
   1    6    6     2     3    5.3177E+01  2.9376E-01   5.2883E+01  0.000E+00  0.000E+00  0.000E+00  1.06369E+03  1.896E+00  1.200E+01  6.000E-02  1.632E+00
   1    7    6     2     4    5.2883E+01  2.9339E-01   5.2590E+01  0.000E+00  0.000E+00  0.000E+00  1.05897E+03  1.890E+00  1.200E+01  6.000E-02  1.630E+00
   1    8    6     2     5    5.2590E+01  2.9301E-01   5.2297E+01  0.000E+00  0.000E+00  0.000E+00  1.05424E+03  1.883E+00  1.200E+01  6.000E-02  1.628E+00
   1    3    5     3     1    2.0000E+00  2.8252E-01   1.7175E+00  0.000E+00  0.000E+00  0.000E+00  1.07555E+03  1.909E+00  9.636E+00  7.227E-02  1.955E+00
   1    3    6     3     2    1.7175E+00  2.4905E-01   1.4684E+00  0.000E+00  0.000E+00  0.000E+00  1.07264E+03  1.727E+00  8.909E+00  6.682E-02  1.864E+00
   1    3    7     3     3    1.4684E+00  1.9718E-01   1.2712E+00  0.000E+00  0.000E+00  0.000E+00  1.06987E+03  1.555E+00  8.218E+00  5.547E-02  1.777E+00
   1    4    8     3     4    1.2712E+00  2.2567E-01   1.0456E+00  0.000E+00  0.000E+00  0.000E+00  1.06682E+03  1.364E+00  7.455E+00  6.709E-02  1.682E+00
   1    5    8     3     5    1.0456E+00  1.5790E-01   8.8768E-01  0.000E+00  0.000E+00  0.000E+00  1.06362E+03  1.164E+00  6.655E+00  4.991E-02  1.582E+00
   1    6    8     3     6    8.8768E-01  5.5980E-02   8.3170E-01  0.000E+00  0.000E+00  0.000E+00  1.06158E+03  1.036E+00  6.145E+00  1.844E-02  1.518E+00
   1    5   10     4     1    1.0000E+01  9.0919E-02   9.9091E+00  0.000E+00  0.000E+00  0.000E+00  1.07836E+03  6.368E-01  1.000E+01  2.500E-02  1.212E+00
   1    5    9     4     2    9.9091E+00  1.8158E-01   9.7275E+00  0.000E+00  0.000E+00  0.000E+00  1.07154E+03  6.315E-01  1.000E+01  5.000E-02  1.211E+00
   1    6    8     4     3    9.7275E+00  1.2689E-01   9.6006E+00  0.000E+00  0.000E+00  0.000E+00  1.06381E+03  6.256E-01  1.000E+01  3.500E-02  1.209E+00
   1    6    8     5     1    1.0432E+01  2.2686E-01   1.0205E+01  0.000E+00  0.000E+00  0.000E+00  1.05868E+03  6.790E-01  1.542E+01  6.166E-02  1.226E+00
   1    7    7     5     2    1.0205E+01  2.7894E-01   9.9265E+00  0.000E+00  0.000E+00  0.000E+00  1.05417E+03  6.732E-01  1.519E+01  7.594E-02  1.224E+00
   1    8    7     5     3    9.9265E+00  1.9221E-01   9.7343E+00  0.000E+00  0.000E+00  0.000E+00  1.04992E+03  6.676E-01  1.497E+01  5.241E-02  1.223E+00
   1    8    6     5     4    9.7343E+00  1.3577E-01   9.5985E+00  0.000E+00  0.000E+00  0.000E+00  1.04691E+03  6.637E-01  1.482E+01  3.706E-02  1.221E+00
   1    9    6     6     1    6.1895E+01  3.0603E-01   6.1589E+01  0.000E+00  0.000E+00  0.000E+00  1.04483E+03  2.100E+00  1.200E+01  6.000E-02  1.700E+00
   1   10    7     6     2    6.1589E+01  3.0565E-01   6.1283E+01  0.000E+00  0.000E+00  0.000E+00  1.04028E+03  2.094E+00  1.200E+01  6.000E-02  1.698E+00
   1   11    7     6     3    6.1283E+01  3.0528E-01   6.0978E+01  0.000E+00  0.000E+00  0.000E+00  1.03572E+03  2.088E+00  1.200E+01  6.000E-02  1.696E+00
   1   12    7     6     4    6.0978E+01  3.0490E-01   6.0673E+01  0.000E+00  0.000E+00  0.000E+00  1.03117E+03  2.082E+00  1.200E+01  6.000E-02  1.694E+00
   1   13    7     6     5    6.0673E+01  2.0241E-02   6.0653E+01  0.000E+00  0.000E+00  0.000E+00  1.02799E+03  2.078E+00  1.200E+01  2.400E-02  2.811E-01
   1   14    9     7     1    1.5000E+02  1.3359E+00   1.4866E+02  0.000E+00  0.000E+00  0.000E+00  1.03987E+03  2.288E+00  5.529E+01  5.593E-01  7.962E-01
   1   13    8     7     2    1.4866E+02  1.8200E+00   1.4684E+02  0.000E+00  0.000E+00  0.000E+00  1.03478E+03  2.279E+00  5.526E+01  6.148E-01  9.868E-01
   1   13    7     7     3    1.4684E+02  1.4218E+00   1.4542E+02  0.000E+00  0.000E+00  0.000E+00  1.02969E+03  2.271E+00  5.522E+01  5.585E-01  8.486E-01
   1   13    6     8     1    2.0608E+02  1.0148E+00   2.0506E+02  0.000E+00  0.000E+00  0.000E+00  1.02505E+03  3.170E+00  4.597E+01  4.684E-01  7.221E-01
   1   13    5     8     2    2.0506E+02  2.1080E-01   2.0485E+02  0.000E+00  0.000E+00  0.000E+00  1.01879E+03  3.167E+00  4.592E+01  4.679E-01  1.502E-01
   1   13    4     8     3    2.0485E+02 -2.1019E+00   2.0695E+02  0.000E+00  0.000E+00  0.000E+00  1.01255E+03  3.172E+00  4.600E+01  4.687E+00 -1.495E-01
   1   13    3     8     4    2.0695E+02 -3.2735E+00   2.1023E+02  0.000E+00  0.000E+00  0.000E+00  1.00631E+03  3.188E+00  4.622E+01  4.710E+00 -2.317E-01
   1   13    2     8     5    2.1023E+02 -2.1674E+00   2.1239E+02  0.000E+00  0.000E+00  0.000E+00  1.00008E+03  3.203E+00  4.645E+01  4.733E+00 -1.527E-01
   1   13    1     8     6    2.1239E+02 -1.7787E+00   2.1417E+02  0.000E+00  0.000E+00  0.000E+00  9.95089E+02  3.214E+00  4.661E+01  2.850E+00 -2.081E-01
   1    8    6     9     1    0.0000E+00  0.0000E+00   0.0000E+00  0.000E+00  0.000E+00  0.000E+00  1.07875E+03  0.000E+00  4.000E+00  0.000E+00  1.000E+00
   1    8    5     9     2    0.0000E+00  0.0000E+00   0.0000E+00  0.000E+00  0.000E+00  0.000E+00  1.07825E+03  0.000E+00  4.000E+00  0.000E+00  1.000E+00





UNSATURATED ZONE PACKAGE VOLUMETRIC BUDGET FOR  TIME STEP    30 STRESS PERIOD    7
  ------------------------------------------------------------------------------



     CUMULATIVE VOLUMES      L**3       RATES FOR THIS TIME STEP      L**3/T
     ------------------                 ------------------------

           IN:                                      IN:
           ---                                      ---
        INFILTRATION =   911112881.6990          INFILTRATION =           0.8475

          OUT:                                     OUT:
          ----                                     ----
              UZF ET =   102104898.4149                UZF ET =          23.4936
        UZF RECHARGE =      960213.8125          UZF RECHARGE =          10.1178

            IN - OUT =   808047769.4716              IN - OUT =         -32.7639

          STORAGE:                                 STORAGE:
          --------                                 --------
      STORAGE CHANGE =   808505103.6462        STORAGE CHANGE =         -32.7759

 PERCENT DISCREPANCY IS DIFFERENCE BETWEEN IN-OUT MINUS CHANGE IN STORAGE
 DIVIDED BY THE AVERAGE OF IN AND OUT TIMES 100

 PERCENT DISCREPANCY =          -0.01     PERCENT DISCREPANCY =           0.04






1
  VOLUMETRIC BUDGET FOR AGRICULTURAL FIELDS AT  END OF TIME STEP   30, STRESS PERIOD   7
  ------------------------------------------------------------------------------

     CUMULATIVE VOLUMES      L**3       RATES FOR THIS TIME STEP      L**3/T
     ------------------                 ------------------------

           IN:                                      IN:
           ---                                      ---
               AG WELLS  =   793171456.0000                 AG WELLS  =           0.0000
      DIVERSION SEGMENTS =   104505088.0000        DIVERSION SEGMENTS =           0.0000
       IRRIGATION PONDS  =           0.0000         IRRIGATION PONDS  =           0.0000
           GW IRRIGATION =           0.0000             GW IRRIGATION =           0.0000
           SW IRRIGATION =           0.0000             SW IRRIGATION =           0.0000
        SYSTEM LOSSES GW =           0.0000          SYSTEM LOSSES GW =           0.0000
        SYSTEM LOSSES SW =           0.0000          SYSTEM LOSSES SW =           0.0000

                TOTAL IN =   897676544.0000                  TOTAL IN =           0.0000

          OUT:                                     OUT:
          ----                                     ----
               AG WELLS  =           0.0000                 AG WELLS  =           0.0000
      DIVERSION SEGMENTS =           0.0000        DIVERSION SEGMENTS =           0.0000
       IRRIGATION PONDS  =           0.0000         IRRIGATION PONDS  =           0.0000
           GW IRRIGATION =   793171456.0000             GW IRRIGATION =           0.0000
           SW IRRIGATION =   104507152.0000             SW IRRIGATION =           0.0000
        SYSTEM LOSSES GW =           0.0000          SYSTEM LOSSES GW =           0.0000
        SYSTEM LOSSES SW =           0.0000          SYSTEM LOSSES SW =           0.0000

               TOTAL OUT =   897678592.0000                 TOTAL OUT =           0.0000

                IN - OUT =       -2048.0000                  IN - OUT =           0.0000

     PERCENT DISCREPANCY =          -0.00         PERCENT DISCREPANCY =           0.00



1
  VOLUMETRIC BUDGET FOR ENTIRE MODEL AT END OF TIME STEP   30, STRESS PERIOD   7
  ------------------------------------------------------------------------------

     CUMULATIVE VOLUMES      L**3       RATES FOR THIS TIME STEP      L**3/T
     ------------------                 ------------------------

           IN:                                      IN:
           ---                                      ---
             STORAGE     =  1035854976.0000               STORAGE     =          71.6536
       CONSTANT HEAD     =           0.0000         CONSTANT HEAD     =           0.0000
     HEAD DEP BOUNDS     =     4533349.0000       HEAD DEP BOUNDS     =           0.2858
      STREAM LEAKAGE     =   194168912.0000        STREAM LEAKAGE     =          12.8546
        UZF RECHARGE     =      960213.7500          UZF RECHARGE     =          10.1178
               GW ET     =           0.0000                 GW ET     =           0.0000
     SURFACE LEAKAGE     =           0.0000       SURFACE LEAKAGE     =           0.0000
           AG WELLS      =           0.0000             AG WELLS      =           0.0000

                TOTAL IN =  1235517568.0000                  TOTAL IN =          94.9118

          OUT:                                     OUT:
          ----                                     ----
             STORAGE     =   268696320.0000               STORAGE     =          85.2388
       CONSTANT HEAD     =           0.0000         CONSTANT HEAD     =           0.0000
     HEAD DEP BOUNDS     =     4631241.0000       HEAD DEP BOUNDS     =           0.2931
      STREAM LEAKAGE     =   167814384.0000        STREAM LEAKAGE     =           9.3216
        UZF RECHARGE     =           0.0000          UZF RECHARGE     =           0.0000
               GW ET     =     1207467.5000                 GW ET     =       5.6943E-02
     SURFACE LEAKAGE     =           0.0000       SURFACE LEAKAGE     =           0.0000
           AG WELLS      =   793171456.0000             AG WELLS      =           0.0000

               TOTAL OUT =  1235520896.0000                 TOTAL OUT =          94.9104

                IN - OUT =       -3328.0000                  IN - OUT =       1.3123E-03

     PERCENT DISCREPANCY =          -0.00         PERCENT DISCREPANCY =           0.00






         TIME SUMMARY AT END OF TIME STEP   30 IN STRESS PERIOD    7
                    SECONDS     MINUTES      HOURS       DAYS        YEARS
                    -----------------------------------------------------------
   TIME STEP LENGTH  87667.      1461.1      24.352      1.0147     2.77799E-03
 STRESS PERIOD TIME 2.63000E+06  43833.      730.56      30.440     8.33397E-02
         TOTAL TIME 1.58664E+07 2.64440E+05  4407.3      183.64     0.50278    
1
1
                            STRESS PERIOD NO.    8, LENGTH =   2630000.    
                            -----------------------------------------------

                              NUMBER OF TIME STEPS =    30

                               MULTIPLIER FOR DELT =     1.000

                            INITIAL TIME STEP SIZE =   87666.66    

 REUSING NON-PARAMETER GHB CELLS FROM LAST STRESS PERIOD

      2 GHB CELLS

 REUSING STREAM SEGMENT DATA FROM LAST STRESS PERIOD



            AREAL INFILTRATION RATE
 READING ON UNIT   19 WITH FORMAT: (FREE)              

            1           2           3           4           5           6           7           8           9          10
 ........................................................................................................................
   1   1.0000E-10  2.0000E-10   0.000       0.000       0.000       0.000       0.000       0.000       0.000       0.000    
   2   2.0000E-10  1.0000E-10  2.0000E-10   0.000       0.000      8.0000E-10  8.0000E-10  5.0000E-10   0.000       0.000    
   3    0.000      5.0000E-10  1.0000E-10  1.0000E-10  8.0000E-10  8.0000E-10  5.0000E-10  5.0000E-10   0.000       0.000    
   4   8.0000E-10  5.0000E-10  1.0000E-10  1.0000E-10  1.0000E-10  1.0000E-10  1.0000E-10  1.0000E-10  2.0000E-10   0.000    
   5   8.0000E-10  5.0000E-10  1.0000E-10  1.0000E-10  1.0000E-10  1.0000E-10  1.0000E-10  1.0000E-10  1.0000E-10  1.0000E-10
   6   8.0000E-10  5.0000E-10  5.0000E-10  2.0000E-10  2.0000E-10  1.0000E-10  1.0000E-10  1.0000E-10  1.0000E-10  5.0000E-10
   7   8.0000E-10  5.0000E-10  5.0000E-10  2.0000E-10  2.0000E-10  1.0000E-10  1.0000E-10  2.0000E-10  2.0000E-10   0.000    
   8    0.000      5.0000E-10  5.0000E-10  2.0000E-10  2.0000E-10  1.0000E-10  1.0000E-10  2.0000E-10  5.0000E-10   0.000    
   9    0.000      5.0000E-10  5.0000E-10  2.0000E-10  2.0000E-10  1.0000E-10  1.0000E-10  2.0000E-10  5.0000E-10   0.000    
  10    0.000      5.0000E-10  5.0000E-10  2.0000E-10  2.0000E-10  1.0000E-10  1.0000E-10  2.0000E-10  5.0000E-10  8.0000E-10
  11    0.000      1.0000E-10  1.0000E-10  1.0000E-10  1.0000E-10  1.0000E-10  1.0000E-10  2.0000E-10  5.0000E-10   0.000    
  12   1.0000E-10  1.0000E-10  1.0000E-10  1.0000E-10  1.0000E-10  1.0000E-10  1.0000E-10  1.0000E-10  2.0000E-10   0.000    
  13   1.0000E-10  1.0000E-10  2.0000E-10  2.0000E-10  2.0000E-10  2.0000E-10  2.0000E-10  1.0000E-10  1.0000E-10   0.000    
  14    0.000      2.0000E-10  5.0000E-10  5.0000E-10  5.0000E-10  5.0000E-10  5.0000E-10  2.0000E-10  1.0000E-10   0.000    
  15    0.000       0.000      8.0000E-10  8.0000E-10  8.0000E-10  8.0000E-10   0.000       0.000       0.000       0.000    

                  ET RATE =  4.000000E-07

 USING ET EXTINCTION DEPTH FROM PREVIOUS STRESS PERIOD. CURRENT PERIOD IS:       8

 USING EXTINCTION WATER CONTENT FROM PREVIOUS STRESS PERIOD. CURRENT PERIOD IS:       8

 USING AIR ENTRY PRESSURE FROM PREVIOUS STRESS PERIOD. CURRENT PERIOD IS:       8

 USING ROOT PRESSURE HEAD FROM PREVIOUS STRESS PERIOD. CURRENT PERIOD IS:       8

 USING ROOT ACTIVITY FROM PREVIOUS STRESS PERIOD. CURRENT PERIOD IS:       8

 PROCESSING AG STRESS PERIOD DATA

 READING AG STRESS PERIOD DATA

 READING IRRIGATION SEGMENT

 READING IRRIGATION WELL

 READING SUPPLEMENTAL WELL

 NO IRRPOND OR REUSING IRRPOND DATA FROM LAST STRESS PERIOD

 END PROCESSING AG STRESS PERIOD DATA OPTIONS
 
 SOLVING FOR HEAD 
                                                   Max.-Head-Change                         Max.-Flux-Residual
  Residual-Control   Outer-Iter.   Inner-Iter.     Column Row Layer    Maximum-Head-Change  Column Row Layer    Maximum-Flux-Residual          L2-NORM 
          0                 1           2             5    8     1       0.6160653370E+00       5    8    1         0.3376792207E+02      0.4567730597E+02
          0                 2           2             4    7     1      -0.1881998946E+01       5    6    1        -0.1013653878E+03      0.2416776294E+03
          0                 3           2             5    8     1      -0.5798469929E+00       5    8    1        -0.3309345680E+02      0.3669350279E+02
          0                 4           2             5    8     1       0.3946548596E-01       5    8    1         0.2308940059E+01      0.2405088868E+01
          0                 5           2             5    8     1      -0.1570855628E-02       5    8    1        -0.9419464024E-01      0.9511906723E-01
          0                 6           1             5    8     1       0.1938353445E-04       5    8    1         0.1188840745E-02      0.1258431371E-02

    ------------------------------------------------
       NWT REQUIRED            6 OUTER ITERATIONS 
       AND A TOTAL OF         11 INNER ITERATIONS.
    ------------------------------------------------

 OUTPUT CONTROL FOR STRESS PERIOD    8   TIME STEP    1
    PRINT BUDGET
    SAVE BUDGET
 UBDSV1 SAVING "         STORAGE" ON UNIT 102 AT TIME STEP 1, STRESS PERIOD8
 UBDSV2 SAVING "   CONSTANT HEAD" ON UNIT 102 AT TIME STEP 1, STRESS PERIOD 8
 UBDSV1 SAVING "FLOW RIGHT FACE " ON UNIT 102 AT TIME STEP 1, STRESS PERIOD8
 UBDSV1 SAVING "FLOW FRONT FACE " ON UNIT 102 AT TIME STEP 1, STRESS PERIOD8

  HEAD DEP BOUNDS   PERIOD    8   STEP     1
 BOUNDARY      1   LAYER   1   ROW    13   COL     1   RATE   -0.292852    
 BOUNDARY      2   LAYER   1   ROW    14   COL     9   RATE    0.285765    



 STREAM LISTING     PERIOD      8   STEP        1

 LAYER ROW COL. STREAM  RCH.  FLOW INTO     FLOW TO   FLOW OUT OF   OVRLND.     DIRECT     STREAM       STREAM     STREAM     STREAM   STREAMBED  STREAMBED
                SEG.NO.  NO.  STRM. RCH.    AQUIFER    STRM. RCH.    RUNOFF     PRECIP       ET          HEAD       DEPTH      WIDTH   CONDCTNC.   GRADIENT

   1    1    1     1     1    5.6250E+01  3.5875E-01   5.5891E+01  0.000E+00  0.000E+00  0.000E+00  1.09453E+03  1.479E+00  1.780E+01  8.010E-02  1.493E+00
   1    2    2     1     2    5.5891E+01  5.5550E-01   5.5336E+01  0.000E+00  0.000E+00  0.000E+00  1.08953E+03  1.473E+00  1.774E+01  1.242E-01  1.491E+00
   1    3    3     1     3    5.5336E+01  4.7368E-01   5.4862E+01  0.000E+00  0.000E+00  0.000E+00  1.08389E+03  1.467E+00  1.767E+01  1.060E-01  1.489E+00
   1    3    4     1     4    5.4862E+01  4.3613E-01   5.4426E+01  0.000E+00  0.000E+00  0.000E+00  1.07887E+03  1.461E+00  1.762E+01  9.777E-02  1.487E+00
   1    4    5     2     1    5.2426E+01  3.8056E-01   5.2046E+01  0.000E+00  0.000E+00  0.000E+00  1.07381E+03  1.879E+00  1.200E+01  7.800E-02  1.626E+00
   1    5    6     2     2    5.2046E+01  2.9230E-01   5.1753E+01  0.000E+00  0.000E+00  0.000E+00  1.06838E+03  1.872E+00  1.200E+01  6.000E-02  1.624E+00
   1    6    6     2     3    5.1753E+01  2.9192E-01   5.1461E+01  0.000E+00  0.000E+00  0.000E+00  1.06366E+03  1.865E+00  1.200E+01  6.000E-02  1.622E+00
   1    7    6     2     4    5.1461E+01  2.9154E-01   5.1170E+01  0.000E+00  0.000E+00  0.000E+00  1.05893E+03  1.859E+00  1.200E+01  6.000E-02  1.620E+00
   1    8    6     2     5    5.1170E+01  2.9116E-01   5.0879E+01  0.000E+00  0.000E+00  0.000E+00  1.05421E+03  1.853E+00  1.200E+01  6.000E-02  1.618E+00
   1    3    5     3     1    2.0000E+00  2.8252E-01   1.7175E+00  0.000E+00  0.000E+00  0.000E+00  1.07555E+03  1.909E+00  9.636E+00  7.227E-02  1.955E+00
   1    3    6     3     2    1.7175E+00  2.4905E-01   1.4684E+00  0.000E+00  0.000E+00  0.000E+00  1.07264E+03  1.727E+00  8.909E+00  6.682E-02  1.864E+00
   1    3    7     3     3    1.4684E+00  1.9718E-01   1.2712E+00  0.000E+00  0.000E+00  0.000E+00  1.06987E+03  1.555E+00  8.218E+00  5.547E-02  1.777E+00
   1    4    8     3     4    1.2712E+00  2.2567E-01   1.0456E+00  0.000E+00  0.000E+00  0.000E+00  1.06682E+03  1.364E+00  7.455E+00  6.709E-02  1.682E+00
   1    5    8     3     5    1.0456E+00  1.5790E-01   8.8768E-01  0.000E+00  0.000E+00  0.000E+00  1.06362E+03  1.164E+00  6.655E+00  4.991E-02  1.582E+00
   1    6    8     3     6    8.8768E-01  5.5980E-02   8.3170E-01  0.000E+00  0.000E+00  0.000E+00  1.06158E+03  1.036E+00  6.145E+00  1.844E-02  1.518E+00
   1    5   10     4     1    1.0000E+01  9.0919E-02   9.9091E+00  0.000E+00  0.000E+00  0.000E+00  1.07836E+03  6.368E-01  1.000E+01  2.500E-02  1.212E+00
   1    5    9     4     2    9.9091E+00  1.8158E-01   9.7275E+00  0.000E+00  0.000E+00  0.000E+00  1.07154E+03  6.315E-01  1.000E+01  5.000E-02  1.211E+00
   1    6    8     4     3    9.7275E+00  1.2689E-01   9.6006E+00  0.000E+00  0.000E+00  0.000E+00  1.06381E+03  6.256E-01  1.000E+01  3.500E-02  1.209E+00
   1    6    8     5     1    1.0432E+01  2.2686E-01   1.0205E+01  0.000E+00  0.000E+00  0.000E+00  1.05868E+03  6.790E-01  1.542E+01  6.166E-02  1.226E+00
   1    7    7     5     2    1.0205E+01  2.7894E-01   9.9265E+00  0.000E+00  0.000E+00  0.000E+00  1.05417E+03  6.732E-01  1.519E+01  7.594E-02  1.224E+00
   1    8    7     5     3    9.9265E+00  1.9221E-01   9.7343E+00  0.000E+00  0.000E+00  0.000E+00  1.04992E+03  6.676E-01  1.497E+01  5.241E-02  1.223E+00
   1    8    6     5     4    9.7343E+00  1.3577E-01   9.5985E+00  0.000E+00  0.000E+00  0.000E+00  1.04691E+03  6.637E-01  1.482E+01  3.706E-02  1.221E+00
   1    9    6     6     1    9.5985E+00  2.2097E-01   9.3776E+00  0.000E+00  0.000E+00  0.000E+00  1.04341E+03  6.828E-01  1.200E+01  6.000E-02  1.228E+00
   1   10    7     6     2    9.3776E+00  2.2039E-01   9.1572E+00  0.000E+00  0.000E+00  0.000E+00  1.03885E+03  6.732E-01  1.200E+01  6.000E-02  1.224E+00
   1   11    7     6     3    9.1572E+00  2.1981E-01   8.9374E+00  0.000E+00  0.000E+00  0.000E+00  1.03430E+03  6.636E-01  1.200E+01  6.000E-02  1.221E+00
   1   12    7     6     4    8.9374E+00  2.1923E-01   8.7181E+00  0.000E+00  0.000E+00  0.000E+00  1.02974E+03  6.539E-01  1.200E+01  6.000E-02  1.218E+00
   1   13    7     6     5    8.7181E+00 -1.3942E-01   8.8576E+00  0.000E+00  0.000E+00  0.000E+00  1.02656E+03  6.521E-01  1.200E+01  2.400E-01 -1.936E-01
   1   14    9     7     1    1.5000E+02  1.3359E+00   1.4866E+02  0.000E+00  0.000E+00  0.000E+00  1.03987E+03  2.288E+00  5.529E+01  5.593E-01  7.962E-01
   1   13    8     7     2    1.4866E+02  1.8200E+00   1.4684E+02  0.000E+00  0.000E+00  0.000E+00  1.03478E+03  2.279E+00  5.526E+01  6.148E-01  9.868E-01
   1   13    7     7     3    1.4684E+02  1.4229E+00   1.4542E+02  0.000E+00  0.000E+00  0.000E+00  1.02969E+03  2.271E+00  5.522E+01  5.585E-01  8.493E-01
   1   13    6     8     1    1.5428E+02  7.7456E-01   1.5350E+02  0.000E+00  0.000E+00  0.000E+00  1.02472E+03  2.844E+00  4.124E+01  4.202E-01  6.144E-01
   1   13    5     8     2    1.5350E+02  5.3531E-02   1.5345E+02  0.000E+00  0.000E+00  0.000E+00  1.01847E+03  2.841E+00  4.120E+01  4.198E-01  4.250E-02
   1   13    4     8     3    1.5345E+02 -3.1929E+00   1.5664E+02  0.000E+00  0.000E+00  0.000E+00  1.01223E+03  2.852E+00  4.135E+01  4.214E+00 -2.526E-01
   1   13    3     8     4    1.5664E+02 -4.2361E+00   1.6088E+02  0.000E+00  0.000E+00  0.000E+00  1.00600E+03  2.877E+00  4.172E+01  4.252E+00 -3.321E-01
   1   13    2     8     5    1.6088E+02 -3.2057E+00   1.6409E+02  0.000E+00  0.000E+00  0.000E+00  9.99778E+02  2.903E+00  4.209E+01  4.289E+00 -2.492E-01
   1   13    1     8     6    1.6409E+02 -2.3580E+00   1.6644E+02  0.000E+00  0.000E+00  0.000E+00  9.94796E+02  2.921E+00  4.236E+01  2.590E+00 -3.035E-01
   1    8    6     9     1    5.0879E+01  0.0000E+00   5.0879E+01  0.000E+00  0.000E+00  0.000E+00  1.08476E+03  6.014E+00  4.000E+00  0.000E+00  3.005E+00
   1    8    5     9     2    5.0879E+01  0.0000E+00   5.0879E+01  0.000E+00  0.000E+00  0.000E+00  1.08426E+03  6.014E+00  4.000E+00  0.000E+00  3.005E+00



 UBDSV3 SAVING "           GW ET" ON UNIT  61 AT TIME STEP 1, STRESS PERIOD 8
 UBDSV3 SAVING "    UZF RECHARGE" ON UNIT  61 AT TIME STEP 1, STRESS PERIOD 8
 UBDSV3 SAVING " SURFACE LEAKAGE" ON UNIT  61 AT TIME STEP 1, STRESS PERIOD 8
 UBDSV3 SAVING "       HORT+DUNN" ON UNIT  61 AT TIME STEP 1, STRESS PERIOD 8
 UBDSV3 SAVING "  STORAGE CHANGE" ON UNIT  61 AT TIME STEP 1, STRESS PERIOD 8


UNSATURATED ZONE PACKAGE VOLUMETRIC BUDGET FOR  TIME STEP     1 STRESS PERIOD    8
  ------------------------------------------------------------------------------



     CUMULATIVE VOLUMES      L**3       RATES FOR THIS TIME STEP      L**3/T
     ------------------                 ------------------------

           IN:                                      IN:
           ---                                      ---
        INFILTRATION =   968247633.1949          INFILTRATION =         651.7272

          OUT:                                     OUT:
          ----                                     ----
              UZF ET =   107436565.6607                UZF ET =          60.8175
        UZF RECHARGE =      960213.8125          UZF RECHARGE =       0.0000E+00

            IN - OUT =   859850853.7216              IN - OUT =         590.9097

          STORAGE:                                 STORAGE:
          --------                                 --------
      STORAGE CHANGE =   860307134.6041        STORAGE CHANGE =         590.8977

 PERCENT DISCREPANCY IS DIFFERENCE BETWEEN IN-OUT MINUS CHANGE IN STORAGE
 DIVIDED BY THE AVERAGE OF IN AND OUT TIMES 100

 PERCENT DISCREPANCY =          -0.01     PERCENT DISCREPANCY =           0.00






 

            AG WELLS      PERIOD    8   STEP   1
 AG WELL      1   LAYER   1   ROW     6   COL     4   RATE    -100.000    
 AG WELL      2   LAYER   1   ROW     6   COL     5   RATE    -100.000    
 AG WELL      3   LAYER   1   ROW     7   COL     4   RATE    -100.000    
 AG WELL      4   LAYER   1   ROW     7   COL     5   RATE    -100.000    
 AG WELL      5   LAYER   1   ROW     8   COL     4   RATE    -100.000    
 AG WELL      6   LAYER   1   ROW     8   COL     5   RATE    -100.000    
 
 

   DIVERSION SEGMENTS     PERIOD    8   STEP   1
 SEGMENT      9   RATE     50.8787    
 
 

        SW IRRIGATION     PERIOD    8   STEP   1
 SEGMENT      9   ROW     6   COL     4   RATE     8.47995    
 SEGMENT      9   ROW     6   COL     5   RATE     8.47995    
 SEGMENT      9   ROW     7   COL     4   RATE     8.47995    
 SEGMENT      9   ROW     7   COL     5   RATE     8.47995    
 SEGMENT      9   ROW     8   COL     4   RATE     8.47995    
 SEGMENT      9   ROW     8   COL     5   RATE     8.47995    
 
 

        GW IRRIGATION     PERIOD    8   STEP   1
 AG WELL      1   ROW     6   COL     4   RATE     100.000    
 AG WELL      2   ROW     6   COL     5   RATE     100.000    
 AG WELL      3   ROW     7   COL     4   RATE     100.000    
 AG WELL      4   ROW     7   COL     5   RATE     100.000    
 AG WELL      5   ROW     8   COL     4   RATE     100.000    
 AG WELL      6   ROW     8   COL     5   RATE     100.000    
 
1
  VOLUMETRIC BUDGET FOR AGRICULTURAL FIELDS AT  END OF TIME STEP    1, STRESS PERIOD   8
  ------------------------------------------------------------------------------

     CUMULATIVE VOLUMES      L**3       RATES FOR THIS TIME STEP      L**3/T
     ------------------                 ------------------------

           IN:                                      IN:
           ---                                      ---
               AG WELLS  =   845771456.0000                 AG WELLS  =         600.0000
      DIVERSION SEGMENTS =   108965448.0000        DIVERSION SEGMENTS =          50.8787
       IRRIGATION PONDS  =           0.0000         IRRIGATION PONDS  =           0.0000
           GW IRRIGATION =           0.0000             GW IRRIGATION =           0.0000
           SW IRRIGATION =           0.0000             SW IRRIGATION =           0.0000
        SYSTEM LOSSES GW =           0.0000          SYSTEM LOSSES GW =           0.0000
        SYSTEM LOSSES SW =           0.0000          SYSTEM LOSSES SW =           0.0000

                TOTAL IN =   954736896.0000                  TOTAL IN =         650.8787

          OUT:                                     OUT:
          ----                                     ----
               AG WELLS  =           0.0000                 AG WELLS  =           0.0000
      DIVERSION SEGMENTS =           0.0000        DIVERSION SEGMENTS =           0.0000
       IRRIGATION PONDS  =           0.0000         IRRIGATION PONDS  =           0.0000
           GW IRRIGATION =   845771456.0000             GW IRRIGATION =         600.0000
           SW IRRIGATION =   108967600.0000             SW IRRIGATION =          50.8797
        SYSTEM LOSSES GW =           0.0000          SYSTEM LOSSES GW =           0.0000
        SYSTEM LOSSES SW =           0.0000          SYSTEM LOSSES SW =           0.0000

               TOTAL OUT =   954739072.0000                 TOTAL OUT =         650.8796

                IN - OUT =       -2176.0000                  IN - OUT =      -9.7656E-04

     PERCENT DISCREPANCY =          -0.00         PERCENT DISCREPANCY =          -0.00



1
  VOLUMETRIC BUDGET FOR ENTIRE MODEL AT END OF TIME STEP    1, STRESS PERIOD   8
  ------------------------------------------------------------------------------

     CUMULATIVE VOLUMES      L**3       RATES FOR THIS TIME STEP      L**3/T
     ------------------                 ------------------------

           IN:                                      IN:
           ---                                      ---
             STORAGE     =  1088614016.0000               STORAGE     =         601.8142
       CONSTANT HEAD     =           0.0000         CONSTANT HEAD     =           0.0000
     HEAD DEP BOUNDS     =     4558401.0000       HEAD DEP BOUNDS     =           0.2858
      STREAM LEAKAGE     =   195226208.0000        STREAM LEAKAGE     =          12.0604
        UZF RECHARGE     =      960213.7500          UZF RECHARGE     =           0.0000
               GW ET     =           0.0000                 GW ET     =           0.0000
     SURFACE LEAKAGE     =           0.0000       SURFACE LEAKAGE     =           0.0000
           AG WELLS      =           0.0000             AG WELLS      =           0.0000

                TOTAL IN =  1289358976.0000                  TOTAL IN =         614.1603

          OUT:                                     OUT:
          ----                                     ----
             STORAGE     =   268760768.0000               STORAGE     =           0.7353
       CONSTANT HEAD     =           0.0000         CONSTANT HEAD     =           0.0000
     HEAD DEP BOUNDS     =     4656914.5000       HEAD DEP BOUNDS     =           0.2929
      STREAM LEAKAGE     =   168965632.0000        STREAM LEAKAGE     =          13.1322
        UZF RECHARGE     =           0.0000          UZF RECHARGE     =           0.0000
               GW ET     =     1207467.5000                 GW ET     =           0.0000
     SURFACE LEAKAGE     =           0.0000       SURFACE LEAKAGE     =           0.0000
           AG WELLS      =   845771456.0000             AG WELLS      =         600.0000

               TOTAL OUT =  1289362176.0000                 TOTAL OUT =         614.1603

                IN - OUT =       -3200.0000                  IN - OUT =       6.1035E-05

     PERCENT DISCREPANCY =          -0.00         PERCENT DISCREPANCY =           0.00






         TIME SUMMARY AT END OF TIME STEP    1 IN STRESS PERIOD    8
                    SECONDS     MINUTES      HOURS       DAYS        YEARS
                    -----------------------------------------------------------
   TIME STEP LENGTH  87667.      1461.1      24.352      1.0147     2.77799E-03
 STRESS PERIOD TIME  87667.      1461.1      24.352      1.0147     2.77799E-03
         TOTAL TIME 1.59541E+07 2.65901E+05  4431.7      184.65     0.50555    
1
 
 SOLVING FOR HEAD 
                                                   Max.-Head-Change                         Max.-Flux-Residual
  Residual-Control   Outer-Iter.   Inner-Iter.     Column Row Layer    Maximum-Head-Change  Column Row Layer    Maximum-Flux-Residual          L2-NORM 
          0                 1           2             5    6     1       0.2928841641E+00       5    6    1         0.1590443643E+02      0.3820343683E+02
          0                 2           2             5    6     1      -0.5787146264E-01       5    6    1        -0.3206781411E+01      0.7211409201E+01
          0                 3           2             5    8     1       0.4767316701E-01       5    8    1         0.2576384144E+01      0.4835771378E+01
          0                 4           2             5    8     1       0.2117249529E-01       5    8    1         0.1169908174E+01      0.1181681619E+01
          0                 5           2             5    8     1       0.9403034264E-02       5    8    1         0.5185741792E+00      0.5185973284E+00
          0                 6           1             5    8     1       0.4176034723E-02       5    8    1         0.2303105438E+00      0.2303150076E+00
          0                 7           1             5    8     1       0.1854642439E-02       5    8    1         0.1022847761E+00      0.1022867303E+00
          0                 8           1             5    8     1       0.8236757694E-03       5    8    1         0.4542627762E-01      0.4542714547E-01
          0                 9           1             5    8     1       0.3658073183E-03       5    8    1         0.2017452523E-01      0.2017491052E-01
          0                10           1             5    8     1       0.1624607629E-03       5    8    1         0.8959823472E-02      0.8959997100E-02
          0                11           1             5    8     1       0.7215137136E-04       5    8    1         0.3979198228E-02      0.3979279476E-02

    ------------------------------------------------
       NWT REQUIRED           11 OUTER ITERATIONS 
       AND A TOTAL OF         16 INNER ITERATIONS.
    ------------------------------------------------

 NO OUTPUT CONTROL FOR STRESS PERIOD    8   TIME STEP    2
 
 SOLVING FOR HEAD 
                                                   Max.-Head-Change                         Max.-Flux-Residual
  Residual-Control   Outer-Iter.   Inner-Iter.     Column Row Layer    Maximum-Head-Change  Column Row Layer    Maximum-Flux-Residual          L2-NORM 
          0                 1           2             5    8     1       0.9948839480E+00       5    8    1         0.5464862200E+02      0.6426137579E+02
          0                 2           2             5    6     1      -0.2320653835E+00       5    8    1         0.1312960418E+02      0.3111892145E+02
          0                 3           2             5    8     1       0.1027725939E+00       5    8    1         0.5644270760E+01      0.5982729279E+01
          0                 4           2             5    8     1       0.4563253331E-01       5    8    1         0.2518325528E+01      0.2519521028E+01
          0                 5           2             5    8     1       0.2026146854E-01       5    8    1         0.1117697185E+01      0.1117708981E+01
          0                 6           2             5    8     1       0.8996370979E-02       5    8    1         0.4962929166E+00      0.4962946850E+00
          0                 7           1             5    8     1       0.3994512768E-02       5    8    1         0.2203605028E+00      0.2203613788E+00
          0                 8           1             5    8     1       0.1773618794E-02       5    8    1         0.9784318358E-01      0.9784356864E-01
          0                 9           1             5    8     1       0.7875112289E-03       5    8    1         0.4344373541E-01      0.4344390641E-01
          0                10           1             5    8     1       0.3496658587E-03       5    8    1         0.1928962085E-01      0.1928969674E-01
                                                   Max.-Head-Change                         Max.-Flux-Residual
  Residual-Control   Outer-Iter.   Inner-Iter.     Column Row Layer    Maximum-Head-Change  Column Row Layer    Maximum-Flux-Residual          L2-NORM 
          0                11           1             5    8     1       0.1552564697E-03       5    8    1         0.8564858602E-02      0.8564892301E-02
          0                12           1             5    8     1       0.6893601619E-04       5    8    1         0.3802915636E-02      0.3802930627E-02

    ------------------------------------------------
       NWT REQUIRED           12 OUTER ITERATIONS 
       AND A TOTAL OF         18 INNER ITERATIONS.
    ------------------------------------------------

 NO OUTPUT CONTROL FOR STRESS PERIOD    8   TIME STEP    3
 
 SOLVING FOR HEAD 
                                                   Max.-Head-Change                         Max.-Flux-Residual
  Residual-Control   Outer-Iter.   Inner-Iter.     Column Row Layer    Maximum-Head-Change  Column Row Layer    Maximum-Flux-Residual          L2-NORM 
          0                 1           2             5    8     1       0.5469838089E+00       5    8    1         0.2987521893E+02      0.4522878005E+02
          0                 2           2             5    8     1       0.1481266498E+00       5    8    1         0.8355076612E+01      0.1671384965E+02
          0                 3           2             5    8     1       0.1293474675E+00       5    8    1         0.7021454137E+01      0.1114693223E+02
          0                 4           2             4    7     1      -0.1022196630E+00       5    6    1        -0.5797449407E+01      0.1319046969E+02
          0                 5           2             5    8     1      -0.2137105647E-01       5    8    1        -0.1214299388E+01      0.1225122600E+01
          0                 6           2             5    8     1      -0.9812126881E-02       5    8    1        -0.5565257366E+00      0.5565298016E+00
          0                 7           1             5    8     1      -0.4505006669E-02       5    8    1        -0.2554914176E+00      0.2554949927E+00
          0                 8           1             5    8     1      -0.2068344747E-02       5    8    1        -0.1172995190E+00      0.1173013838E+00
          0                 9           1             5    8     1      -0.9496107678E-03       5    8    1        -0.5385356454E-01      0.5385443034E-01
          0                10           1             5    8     1      -0.4359769708E-03       5    8    1        -0.2472454062E-01      0.2472493852E-01
                                                   Max.-Head-Change                         Max.-Flux-Residual
  Residual-Control   Outer-Iter.   Inner-Iter.     Column Row Layer    Maximum-Head-Change  Column Row Layer    Maximum-Flux-Residual          L2-NORM 
          0                11           1             5    8     1      -0.2001597208E-03       5    8    1        -0.1135108252E-01      0.1135126522E-01
          0                12           1             5    8     1      -0.9189355223E-04       5    8    1        -0.5211245875E-02      0.5211329774E-02

    ------------------------------------------------
       NWT REQUIRED           12 OUTER ITERATIONS 
       AND A TOTAL OF         18 INNER ITERATIONS.
    ------------------------------------------------

 NO OUTPUT CONTROL FOR STRESS PERIOD    8   TIME STEP    4
 
 SOLVING FOR HEAD 
                                                   Max.-Head-Change                         Max.-Flux-Residual
  Residual-Control   Outer-Iter.   Inner-Iter.     Column Row Layer    Maximum-Head-Change  Column Row Layer    Maximum-Flux-Residual          L2-NORM 
          0                 1           2             5    8     1       0.8947575313E+00       5    8    1         0.4903519112E+02      0.5946375154E+02
          0                 2           2             5    8     1       0.4151992380E+00       5    8    1         0.2310996566E+02      0.2779603261E+02
          0                 3           2             5    8     1       0.2958196128E+00       5    8    1         0.1622055000E+02      0.1797453977E+02
          0                 4           2             4    7     1      -0.8915128296E-01       5    6    1        -0.5059066929E+01      0.1217682815E+02
          0                 5           2             5    8     1       0.4600459204E-01       5    8    1         0.2536719431E+01      0.2541073304E+01
          0                 6           2             5    8     1       0.2663350057E-01       5    8    1         0.1469644347E+01      0.1469665443E+01
          0                 7           2             5    8     1       0.1541893188E-01       5    8    1         0.8508402465E+00      0.8508484525E+00
          0                 8           2             5    8     1       0.8926470221E-02       5    8    1         0.4925775503E+00      0.4925822542E+00
          0                 9           1             5    8     1       0.5167790544E-02       5    8    1         0.2851676874E+00      0.2851704089E+00
          0                10           1             5    8     1       0.2991781383E-02       5    8    1         0.1650918319E+00      0.1650934069E+00
                                                   Max.-Head-Change                         Max.-Flux-Residual
  Residual-Control   Outer-Iter.   Inner-Iter.     Column Row Layer    Maximum-Head-Change  Column Row Layer    Maximum-Flux-Residual          L2-NORM 
          0                11           1             5    8     1       0.1732027160E-02       5    8    1         0.9557638889E-01      0.9557730050E-01
          0                12           1             5    8     1       0.1002719536E-02       5    8    1         0.5533189049E-01      0.5533241814E-01
          0                13           1             5    8     1       0.5805026658E-03       5    8    1         0.3203319951E-01      0.3203350496E-01
          0                14           1             5    8     1       0.3360693755E-03       5    8    1         0.1854492501E-01      0.1854510191E-01
          0                15           1             5    8     1       0.1945600403E-03       5    8    1         0.1073618082E-01      0.1073628315E-01
          0                16           1             5    8     1       0.1126362927E-03       5    8    1         0.6215478051E-02      0.6215537652E-02
          0                17           1             5    8     1       0.6520832519E-04       5    8    1         0.3598315572E-02      0.3598350608E-02

    ------------------------------------------------
       NWT REQUIRED           17 OUTER ITERATIONS 
       AND A TOTAL OF         25 INNER ITERATIONS.
    ------------------------------------------------

 OUTPUT CONTROL FOR STRESS PERIOD    8   TIME STEP    5
    PRINT BUDGET
    SAVE BUDGET
 UBDSV1 SAVING "         STORAGE" ON UNIT 102 AT TIME STEP 5, STRESS PERIOD8
 UBDSV2 SAVING "   CONSTANT HEAD" ON UNIT 102 AT TIME STEP 5, STRESS PERIOD 8
 UBDSV1 SAVING "FLOW RIGHT FACE " ON UNIT 102 AT TIME STEP 5, STRESS PERIOD8
 UBDSV1 SAVING "FLOW FRONT FACE " ON UNIT 102 AT TIME STEP 5, STRESS PERIOD8

  HEAD DEP BOUNDS   PERIOD    8   STEP     5
 BOUNDARY      1   LAYER   1   ROW    13   COL     1   RATE   -0.292110    
 BOUNDARY      2   LAYER   1   ROW    14   COL     9   RATE    0.285765    



 STREAM LISTING     PERIOD      8   STEP        5

 LAYER ROW COL. STREAM  RCH.  FLOW INTO     FLOW TO   FLOW OUT OF   OVRLND.     DIRECT     STREAM       STREAM     STREAM     STREAM   STREAMBED  STREAMBED
                SEG.NO.  NO.  STRM. RCH.    AQUIFER    STRM. RCH.    RUNOFF     PRECIP       ET          HEAD       DEPTH      WIDTH   CONDCTNC.   GRADIENT

   1    1    1     1     1    5.6250E+01  3.5875E-01   5.5891E+01  0.000E+00  0.000E+00  0.000E+00  1.09453E+03  1.479E+00  1.780E+01  8.010E-02  1.493E+00
   1    2    2     1     2    5.5891E+01  5.5550E-01   5.5336E+01  0.000E+00  0.000E+00  0.000E+00  1.08953E+03  1.473E+00  1.774E+01  1.242E-01  1.491E+00
   1    3    3     1     3    5.5336E+01  4.7368E-01   5.4862E+01  0.000E+00  0.000E+00  0.000E+00  1.08389E+03  1.467E+00  1.767E+01  1.060E-01  1.489E+00
   1    3    4     1     4    5.4862E+01  4.3613E-01   5.4426E+01  0.000E+00  0.000E+00  0.000E+00  1.07887E+03  1.461E+00  1.762E+01  9.777E-02  1.487E+00
   1    4    5     2     1    5.2426E+01  3.8056E-01   5.2046E+01  0.000E+00  0.000E+00  0.000E+00  1.07381E+03  1.879E+00  1.200E+01  7.800E-02  1.626E+00
   1    5    6     2     2    5.2046E+01  2.9230E-01   5.1753E+01  0.000E+00  0.000E+00  0.000E+00  1.06838E+03  1.872E+00  1.200E+01  6.000E-02  1.624E+00
   1    6    6     2     3    5.1753E+01  2.9192E-01   5.1461E+01  0.000E+00  0.000E+00  0.000E+00  1.06366E+03  1.865E+00  1.200E+01  6.000E-02  1.622E+00
   1    7    6     2     4    5.1461E+01  2.9154E-01   5.1170E+01  0.000E+00  0.000E+00  0.000E+00  1.05893E+03  1.859E+00  1.200E+01  6.000E-02  1.620E+00
   1    8    6     2     5    5.1170E+01  2.9116E-01   5.0879E+01  0.000E+00  0.000E+00  0.000E+00  1.05421E+03  1.853E+00  1.200E+01  6.000E-02  1.618E+00
   1    3    5     3     1    2.0000E+00  2.8252E-01   1.7175E+00  0.000E+00  0.000E+00  0.000E+00  1.07555E+03  1.909E+00  9.636E+00  7.227E-02  1.955E+00
   1    3    6     3     2    1.7175E+00  2.4905E-01   1.4684E+00  0.000E+00  0.000E+00  0.000E+00  1.07264E+03  1.727E+00  8.909E+00  6.682E-02  1.864E+00
   1    3    7     3     3    1.4684E+00  1.9718E-01   1.2712E+00  0.000E+00  0.000E+00  0.000E+00  1.06987E+03  1.555E+00  8.218E+00  5.547E-02  1.777E+00
   1    4    8     3     4    1.2712E+00  2.2567E-01   1.0456E+00  0.000E+00  0.000E+00  0.000E+00  1.06682E+03  1.364E+00  7.455E+00  6.709E-02  1.682E+00
   1    5    8     3     5    1.0456E+00  1.5790E-01   8.8768E-01  0.000E+00  0.000E+00  0.000E+00  1.06362E+03  1.164E+00  6.655E+00  4.991E-02  1.582E+00
   1    6    8     3     6    8.8768E-01  5.5980E-02   8.3170E-01  0.000E+00  0.000E+00  0.000E+00  1.06158E+03  1.036E+00  6.145E+00  1.844E-02  1.518E+00
   1    5   10     4     1    1.0000E+01  9.0919E-02   9.9091E+00  0.000E+00  0.000E+00  0.000E+00  1.07836E+03  6.368E-01  1.000E+01  2.500E-02  1.212E+00
   1    5    9     4     2    9.9091E+00  1.8158E-01   9.7275E+00  0.000E+00  0.000E+00  0.000E+00  1.07154E+03  6.315E-01  1.000E+01  5.000E-02  1.211E+00
   1    6    8     4     3    9.7275E+00  1.2689E-01   9.6006E+00  0.000E+00  0.000E+00  0.000E+00  1.06381E+03  6.256E-01  1.000E+01  3.500E-02  1.209E+00
   1    6    8     5     1    1.0432E+01  2.2686E-01   1.0205E+01  0.000E+00  0.000E+00  0.000E+00  1.05868E+03  6.790E-01  1.542E+01  6.166E-02  1.226E+00
   1    7    7     5     2    1.0205E+01  2.7894E-01   9.9265E+00  0.000E+00  0.000E+00  0.000E+00  1.05417E+03  6.732E-01  1.519E+01  7.594E-02  1.224E+00
   1    8    7     5     3    9.9265E+00  1.9221E-01   9.7343E+00  0.000E+00  0.000E+00  0.000E+00  1.04992E+03  6.676E-01  1.497E+01  5.241E-02  1.223E+00
   1    8    6     5     4    9.7343E+00  1.3577E-01   9.5985E+00  0.000E+00  0.000E+00  0.000E+00  1.04691E+03  6.637E-01  1.482E+01  3.706E-02  1.221E+00
   1    9    6     6     1    9.5985E+00  2.2097E-01   9.3776E+00  0.000E+00  0.000E+00  0.000E+00  1.04341E+03  6.828E-01  1.200E+01  6.000E-02  1.228E+00
   1   10    7     6     2    9.3776E+00  2.2039E-01   9.1572E+00  0.000E+00  0.000E+00  0.000E+00  1.03885E+03  6.732E-01  1.200E+01  6.000E-02  1.224E+00
   1   11    7     6     3    9.1572E+00  2.1981E-01   8.9374E+00  0.000E+00  0.000E+00  0.000E+00  1.03430E+03  6.636E-01  1.200E+01  6.000E-02  1.221E+00
   1   12    7     6     4    8.9374E+00  2.1923E-01   8.7181E+00  0.000E+00  0.000E+00  0.000E+00  1.02974E+03  6.539E-01  1.200E+01  6.000E-02  1.218E+00
   1   13    7     6     5    8.7181E+00 -1.3817E-01   8.8563E+00  0.000E+00  0.000E+00  0.000E+00  1.02656E+03  6.521E-01  1.200E+01  2.400E-01 -1.919E-01
   1   14    9     7     1    1.5000E+02  1.3359E+00   1.4866E+02  0.000E+00  0.000E+00  0.000E+00  1.03987E+03  2.288E+00  5.529E+01  5.593E-01  7.962E-01
   1   13    8     7     2    1.4866E+02  1.8200E+00   1.4684E+02  0.000E+00  0.000E+00  0.000E+00  1.03478E+03  2.279E+00  5.526E+01  6.148E-01  9.868E-01
   1   13    7     7     3    1.4684E+02  1.4258E+00   1.4542E+02  0.000E+00  0.000E+00  0.000E+00  1.02969E+03  2.271E+00  5.522E+01  5.585E-01  8.511E-01
   1   13    6     8     1    1.5427E+02  7.7829E-01   1.5350E+02  0.000E+00  0.000E+00  0.000E+00  1.02472E+03  2.844E+00  4.124E+01  4.202E-01  6.174E-01
   1   13    5     8     2    1.5350E+02  5.7121E-02   1.5344E+02  0.000E+00  0.000E+00  0.000E+00  1.01847E+03  2.841E+00  4.120E+01  4.198E-01  4.536E-02
   1   13    4     8     3    1.5344E+02 -3.0814E+00   1.5652E+02  0.000E+00  0.000E+00  0.000E+00  1.01223E+03  2.852E+00  4.135E+01  4.213E+00 -2.438E-01
   1   13    3     8     4    1.5652E+02 -4.1464E+00   1.6067E+02  0.000E+00  0.000E+00  0.000E+00  1.00600E+03  2.876E+00  4.171E+01  4.250E+00 -3.252E-01
   1   13    2     8     5    1.6067E+02 -3.0899E+00   1.6376E+02  0.000E+00  0.000E+00  0.000E+00  9.99776E+02  2.901E+00  4.206E+01  4.286E+00 -2.403E-01
   1   13    1     8     6    1.6376E+02 -2.3116E+00   1.6607E+02  0.000E+00  0.000E+00  0.000E+00  9.94794E+02  2.919E+00  4.232E+01  2.588E+00 -2.978E-01
   1    8    6     9     1    5.0879E+01  0.0000E+00   5.0879E+01  0.000E+00  0.000E+00  0.000E+00  1.08476E+03  6.014E+00  4.000E+00  0.000E+00  3.005E+00
   1    8    5     9     2    5.0879E+01  0.0000E+00   5.0879E+01  0.000E+00  0.000E+00  0.000E+00  1.08426E+03  6.014E+00  4.000E+00  0.000E+00  3.005E+00



 UBDSV3 SAVING "           GW ET" ON UNIT  61 AT TIME STEP 5, STRESS PERIOD 8
 UBDSV3 SAVING "    UZF RECHARGE" ON UNIT  61 AT TIME STEP 5, STRESS PERIOD 8
 UBDSV3 SAVING " SURFACE LEAKAGE" ON UNIT  61 AT TIME STEP 5, STRESS PERIOD 8
 UBDSV3 SAVING "       HORT+DUNN" ON UNIT  61 AT TIME STEP 5, STRESS PERIOD 8
 UBDSV3 SAVING "  STORAGE CHANGE" ON UNIT  61 AT TIME STEP 5, STRESS PERIOD 8


UNSATURATED ZONE PACKAGE VOLUMETRIC BUDGET FOR  TIME STEP     5 STRESS PERIOD    8
  ------------------------------------------------------------------------------



     CUMULATIVE VOLUMES      L**3       RATES FOR THIS TIME STEP      L**3/T
     ------------------                 ------------------------

           IN:                                      IN:
           ---                                      ---
        INFILTRATION =   997316611.0534          INFILTRATION =          96.4694

          OUT:                                     OUT:
          ----                                     ----
              UZF ET =   128783687.1443                UZF ET =          60.8175
        UZF RECHARGE =    22346164.0625          UZF RECHARGE =         109.4630

            IN - OUT =   846186759.8466              IN - OUT =         -73.8111

          STORAGE:                                 STORAGE:
          --------                                 --------
      STORAGE CHANGE =   846642486.7808        STORAGE CHANGE =         -73.8111

 PERCENT DISCREPANCY IS DIFFERENCE BETWEEN IN-OUT MINUS CHANGE IN STORAGE
 DIVIDED BY THE AVERAGE OF IN AND OUT TIMES 100

 PERCENT DISCREPANCY =          -0.01     PERCENT DISCREPANCY =           0.00






 

            AG WELLS      PERIOD    8   STEP   5
 AG WELL      1   LAYER   1   ROW     6   COL     4   RATE    -7.45704    
 AG WELL      2   LAYER   1   ROW     6   COL     5   RATE    -7.45704    
 AG WELL      3   LAYER   1   ROW     7   COL     4   RATE    -7.45704    
 AG WELL      4   LAYER   1   ROW     7   COL     5   RATE    -7.45704    
 AG WELL      5   LAYER   1   ROW     8   COL     4   RATE    -7.45704    
 AG WELL      6   LAYER   1   ROW     8   COL     5   RATE    -7.45704    
 
 

   DIVERSION SEGMENTS     PERIOD    8   STEP   5
 SEGMENT      9   RATE     50.8787    
 
 

        SW IRRIGATION     PERIOD    8   STEP   5
 SEGMENT      9   ROW     6   COL     4   RATE     8.47995    
 SEGMENT      9   ROW     6   COL     5   RATE     8.47995    
 SEGMENT      9   ROW     7   COL     4   RATE     8.47995    
 SEGMENT      9   ROW     7   COL     5   RATE     8.47995    
 SEGMENT      9   ROW     8   COL     4   RATE     8.47995    
 SEGMENT      9   ROW     8   COL     5   RATE     8.47995    
 
 

        GW IRRIGATION     PERIOD    8   STEP   5
 AG WELL      1   ROW     6   COL     4   RATE     7.45704    
 AG WELL      2   ROW     6   COL     5   RATE     7.45704    
 AG WELL      3   ROW     7   COL     4   RATE     7.45704    
 AG WELL      4   ROW     7   COL     5   RATE     7.45704    
 AG WELL      5   ROW     8   COL     4   RATE     7.45704    
 AG WELL      6   ROW     8   COL     5   RATE     7.45704    
 
1
  VOLUMETRIC BUDGET FOR AGRICULTURAL FIELDS AT  END OF TIME STEP    5, STRESS PERIOD   8
  ------------------------------------------------------------------------------

     CUMULATIVE VOLUMES      L**3       RATES FOR THIS TIME STEP      L**3/T
     ------------------                 ------------------------

           IN:                                      IN:
           ---                                      ---
               AG WELLS  =   859461376.0000                 AG WELLS  =          44.7422
      DIVERSION SEGMENTS =   124047008.0000        DIVERSION SEGMENTS =          50.8787
       IRRIGATION PONDS  =           0.0000         IRRIGATION PONDS  =           0.0000
           GW IRRIGATION =           0.0000             GW IRRIGATION =           0.0000
           SW IRRIGATION =           0.0000             SW IRRIGATION =           0.0000
        SYSTEM LOSSES GW =           0.0000          SYSTEM LOSSES GW =           0.0000
        SYSTEM LOSSES SW =           0.0000          SYSTEM LOSSES SW =           0.0000

                TOTAL IN =   983508352.0000                  TOTAL IN =          95.6209

          OUT:                                     OUT:
          ----                                     ----
               AG WELLS  =           0.0000                 AG WELLS  =           0.0000
      DIVERSION SEGMENTS =           0.0000        DIVERSION SEGMENTS =           0.0000
       IRRIGATION PONDS  =           0.0000         IRRIGATION PONDS  =           0.0000
           GW IRRIGATION =   859461376.0000             GW IRRIGATION =          44.7422
           SW IRRIGATION =   124049464.0000             SW IRRIGATION =          50.8797
        SYSTEM LOSSES GW =           0.0000          SYSTEM LOSSES GW =           0.0000
        SYSTEM LOSSES SW =           0.0000          SYSTEM LOSSES SW =           0.0000

               TOTAL OUT =   983510848.0000                 TOTAL OUT =          95.6219

                IN - OUT =       -2496.0000                  IN - OUT =      -1.0147E-03

     PERCENT DISCREPANCY =          -0.00         PERCENT DISCREPANCY =          -0.00



1
  VOLUMETRIC BUDGET FOR ENTIRE MODEL AT END OF TIME STEP    5, STRESS PERIOD   8
  ------------------------------------------------------------------------------

     CUMULATIVE VOLUMES      L**3       RATES FOR THIS TIME STEP      L**3/T
     ------------------                 ------------------------

           IN:                                      IN:
           ---                                      ---
             STORAGE     =  1115177216.0000               STORAGE     =          70.7434
       CONSTANT HEAD     =           0.0000         CONSTANT HEAD     =           0.0000
     HEAD DEP BOUNDS     =     4658609.0000       HEAD DEP BOUNDS     =           0.2858
      STREAM LEAKAGE     =   199499424.0000        STREAM LEAKAGE     =          12.0706
        UZF RECHARGE     =    22346162.0000          UZF RECHARGE     =         109.4630
               GW ET     =           0.0000                 GW ET     =           0.0000
     SURFACE LEAKAGE     =           0.0000       SURFACE LEAKAGE     =           0.0000
           AG WELLS      =           0.0000             AG WELLS      =           0.0000

                TOTAL IN =  1341681280.0000                  TOTAL IN =         192.5627

          OUT:                                     OUT:
          ----                                     ----
             STORAGE     =   302959808.0000               STORAGE     =         134.7587
       CONSTANT HEAD     =           0.0000         CONSTANT HEAD     =           0.0000
     HEAD DEP BOUNDS     =     4759472.5000       HEAD DEP BOUNDS     =           0.2921
      STREAM LEAKAGE     =   173296256.0000        STREAM LEAKAGE     =          12.7675
        UZF RECHARGE     =           0.0000          UZF RECHARGE     =           0.0000
               GW ET     =     1207612.8750                 GW ET     =           0.0000
     SURFACE LEAKAGE     =           0.0000       SURFACE LEAKAGE     =           0.0000
           AG WELLS      =   859461376.0000             AG WELLS      =          44.7422

               TOTAL OUT =  1341684480.0000                 TOTAL OUT =         192.5607

                IN - OUT =       -3200.0000                  IN - OUT =       2.0905E-03

     PERCENT DISCREPANCY =          -0.00         PERCENT DISCREPANCY =           0.00






         TIME SUMMARY AT END OF TIME STEP    5 IN STRESS PERIOD    8
                    SECONDS     MINUTES      HOURS       DAYS        YEARS
                    -----------------------------------------------------------
   TIME STEP LENGTH  87667.      1461.1      24.352      1.0147     2.77799E-03
 STRESS PERIOD TIME 4.38333E+05  7305.6      121.76      5.0733     1.38899E-02
         TOTAL TIME 1.63048E+07 2.71746E+05  4529.1      188.71     0.51667    
1
 
 SOLVING FOR HEAD 
                                                   Max.-Head-Change                         Max.-Flux-Residual
  Residual-Control   Outer-Iter.   Inner-Iter.     Column Row Layer    Maximum-Head-Change  Column Row Layer    Maximum-Flux-Residual          L2-NORM 
          0                 1           2             5    8     1       0.1983571200E+01       5    8    1         0.1090508210E+03      0.1142576679E+03
          0                 2           2             4    7     1      -0.1883509984E+01       4    8    1        -0.1015608663E+03      0.2296198811E+03
          0                 3           2             5    8     1      -0.4125223186E+00       5    8    1        -0.2362520050E+02      0.2846246588E+02
          0                 4           2             5    8     1      -0.2435174679E+00       5    8    1        -0.1380965989E+02      0.1382593835E+02
          0                 5           2             5    8     1      -0.1437514503E+00       5    8    1        -0.8156764823E+01      0.8156781216E+01
          0                 6           2             5    8     1      -0.8485877160E-01       5    8    1        -0.4814863505E+01      0.4814874101E+01
          0                 7           2             5    8     1      -0.5009349841E-01       5    8    1        -0.2842231745E+01      0.2842237925E+01
          0                 8           2             5    8     1      -0.2957092445E-01       5    8    1        -0.1677783517E+01      0.1677787173E+01
          0                 9           2             5    8     1      -0.1745607692E-01       5    8    1        -0.9904026920E+00      0.9904048523E+00
          0                10           2             5    8     1      -0.1030448234E-01       5    8    1        -0.5846369025E+00      0.5846381784E+00
                                                   Max.-Head-Change                         Max.-Flux-Residual
  Residual-Control   Outer-Iter.   Inner-Iter.     Column Row Layer    Maximum-Head-Change  Column Row Layer    Maximum-Flux-Residual          L2-NORM 
          0                11           1             5    8     1      -0.6082795997E-02       5    8    1        -0.3451108484E+00      0.3451116018E+00
          0                12           1             5    8     1      -0.3590688389E-02       5    8    1        -0.2037176455E+00      0.2037180903E+00
          0                13           1             5    8     1      -0.2119578427E-02       5    8    1        -0.1202530620E+00      0.1202533246E+00
          0                14           1             5    8     1      -0.1251176331E-02       5    8    1        -0.7098408446E-01      0.7098423947E-01
          0                15           1             5    8     1      -0.7385582883E-03       5    8    1        -0.4190087632E-01      0.4190096782E-01
          0                16           1             5    8     1      -0.4359616034E-03       5    8    1        -0.2473332285E-01      0.2473337686E-01
          0                17           1             5    8     1      -0.2573409522E-03       5    8    1        -0.1459953567E-01      0.1459956755E-01
          0                18           1             5    8     1      -0.1519031428E-03       5    8    1        -0.8617728816E-02      0.8617747637E-02
          0                19           1             5    8     1      -0.8966476258E-04       5    8    1        -0.5086789871E-02      0.5086800993E-02

    ------------------------------------------------
       NWT REQUIRED           19 OUTER ITERATIONS 
       AND A TOTAL OF         29 INNER ITERATIONS.
    ------------------------------------------------

 NO OUTPUT CONTROL FOR STRESS PERIOD    8   TIME STEP    6
 
 SOLVING FOR HEAD 
                                                   Max.-Head-Change                         Max.-Flux-Residual
  Residual-Control   Outer-Iter.   Inner-Iter.     Column Row Layer    Maximum-Head-Change  Column Row Layer    Maximum-Flux-Residual          L2-NORM 
          0                 1           2             5    8     1       0.1919880547E+01       5    8    1         0.1054674010E+03      0.1124540574E+03
          0                 2           2             5    8     1       0.1080642820E+01       5    8    1         0.5975908083E+02      0.6020741312E+02
          0                 3           2             5    8     1       0.6553200282E+00       5    8    1         0.3612730091E+02      0.3636547501E+02
          0                 4           2             5    8     1       0.3790875344E+00       5    8    1         0.2093489186E+02      0.2093540359E+02
          0                 5           2             5    8     1       0.2192855745E+00       5    8    1         0.1210917182E+02      0.1210921023E+02
          0                 6           2             5    8     1       0.1268447977E+00       5    8    1         0.7004769265E+01      0.7004785173E+01
          0                 7           2             5    8     1       0.7337204288E-01       5    8    1         0.4051905020E+01      0.4051914401E+01
          0                 8           2             5    8     1       0.4244102619E-01       5    8    1         0.2343791621E+01      0.2343797021E+01
          0                 9           2             5    8     1       0.2454932682E-01       5    8    1         0.1355736504E+01      0.1355739622E+01
          0                10           2             5    8     1       0.1420013261E-01       5    8    1         0.7842049842E+00      0.7842067852E+00
                                                   Max.-Head-Change                         Max.-Flux-Residual
  Residual-Control   Outer-Iter.   Inner-Iter.     Column Row Layer    Maximum-Head-Change  Column Row Layer    Maximum-Flux-Residual          L2-NORM 
          0                11           2             5    8     1       0.8213810766E-02       5    8    1         0.4536101442E+00      0.4536111850E+00
          0                12           1             5    8     1       0.4751127501E-02       5    8    1         0.2623827346E+00      0.2623833362E+00
          0                13           1             5    8     1       0.2748201065E-02       5    8    1         0.1517705003E+00      0.1517708480E+00
          0                14           1             5    8     1       0.1589645267E-02       5    8    1         0.8778882879E-01      0.8778902986E-01
          0                15           1             5    8     1       0.9195003117E-03       5    8    1         0.5077980349E-01      0.5077991974E-01
          0                16           1             5    8     1       0.5318675652E-03       5    8    1         0.2937262106E-01      0.2937268827E-01
          0                17           1             5    8     1       0.3076487204E-03       5    8    1         0.1699003783E-01      0.1699007670E-01
          0                18           1             5    8     1       0.1779535714E-03       5    8    1         0.9827565895E-02      0.9827588368E-02
          0                19           1             5    8     1       0.1029338686E-03       5    8    1         0.5684569341E-02      0.5684582337E-02
          0                20           1             5    8     1       0.5954014415E-04       5    8    1         0.3288131406E-02      0.3288138955E-02

    ------------------------------------------------
       NWT REQUIRED           20 OUTER ITERATIONS 
       AND A TOTAL OF         31 INNER ITERATIONS.
    ------------------------------------------------

 NO OUTPUT CONTROL FOR STRESS PERIOD    8   TIME STEP    7
 
 SOLVING FOR HEAD 
                                                   Max.-Head-Change                         Max.-Flux-Residual
  Residual-Control   Outer-Iter.   Inner-Iter.     Column Row Layer    Maximum-Head-Change  Column Row Layer    Maximum-Flux-Residual          L2-NORM 
          0                 1           2             4    8     1       0.2365981501E+01       4    8    1         0.1268786823E+03      0.2048025524E+03
          0                 2           2             4    7     1      -0.1851596679E+01       4    6    1        -0.1013766382E+03      0.1649237221E+03
          0                 3           2             5    6     1      -0.5227901421E+00       5    6    1        -0.2933232940E+02      0.5202977000E+02
          0                 4           2             5    6     1      -0.3139452883E+00       5    6    1        -0.1753885632E+02      0.3089523351E+02
          0                 5           2             5    6     1      -0.1885854115E+00       5    6    1        -0.1053494148E+02      0.1875738924E+02
          0                 6           2             5    6     1      -0.1133149482E+00       5    6    1        -0.6328321693E+01      0.1138927559E+02
          0                 7           2             5    7     1      -0.6837926165E-01       5    6    1        -0.3802525461E+01      0.6916703810E+01
          0                 8           2             5    7     1      -0.4175239586E-01       5    7    1        -0.2298429009E+01      0.4201205957E+01
          0                 9           2             5    7     1      -0.2548468627E-01       5    7    1        -0.1403342207E+01      0.2552203756E+01
          0                10           2             5    7     1      -0.1554994060E-01       5    7    1        -0.8565216986E+00      0.1550668072E+01
                                                   Max.-Head-Change                         Max.-Flux-Residual
  Residual-Control   Outer-Iter.   Inner-Iter.     Column Row Layer    Maximum-Head-Change  Column Row Layer    Maximum-Flux-Residual          L2-NORM 
          0                11           2             5    7     1      -0.9485052176E-02       5    7    1        -0.5225958281E+00      0.9422812420E+00
          0                12           2             5    7     1      -0.5783911124E-02       5    7    1        -0.3187543822E+00      0.5726601089E+00
          0                13           2             5    7     1      -0.3526006689E-02       5    7    1        -0.1943651044E+00      0.3480685858E+00
          0                14           2             5    7     1      -0.2148980365E-02       5    7    1        -0.1184843490E+00      0.2115832829E+00
          0                15           2             5    7     1      -0.1309414601E-02       5    7    1        -0.7220916533E-01      0.1286304716E+00
          0                16           2             5    7     1      -0.7976721834E-03       5    7    1        -0.4399667629E-01      0.7820777698E-01
          0                17           2             5    7     1      -0.4858261725E-03       5    7    1        -0.2680098056E-01      0.4755512893E-01
          0                18           2             5    7     1      -0.2958371994E-03       5    7    1        -0.1632267650E-01      0.2891905352E-01
          0                19           2             5    7     1      -0.1801133467E-03       5    7    1        -0.9939124150E-02      0.1758766476E-01
          0                20           2             5    7     1      -0.1096391598E-03       5    7    1        -0.6050993579E-02      0.1069714598E-01
          0                21           1             5    7     1      -0.6672950089E-04       5    7    1        -0.3683261195E-02      0.6506712997E-02

    ------------------------------------------------
       NWT REQUIRED           21 OUTER ITERATIONS 
       AND A TOTAL OF         41 INNER ITERATIONS.
    ------------------------------------------------

 NO OUTPUT CONTROL FOR STRESS PERIOD    8   TIME STEP    8
 
 SOLVING FOR HEAD 
                                                   Max.-Head-Change                         Max.-Flux-Residual
  Residual-Control   Outer-Iter.   Inner-Iter.     Column Row Layer    Maximum-Head-Change  Column Row Layer    Maximum-Flux-Residual          L2-NORM 
          0                 1           2             5    7     1       0.2389845798E+01       5    7    1         0.1283662459E+03      0.2386700878E+03
          0                 2           2             5    7     1       0.1388720135E+01       5    7    1         0.7507737946E+02      0.1312606810E+03
          0                 3           2             5    7     1       0.8514593917E+00       5    7    1         0.4613619571E+02      0.7888397660E+02
          0                 4           2             5    7     1       0.5023645461E+00       5    7    1         0.2728426693E+02      0.4640054830E+02
          0                 5           2             5    7     1       0.2961350547E+00       5    7    1         0.1609295116E+02      0.2737436278E+02
          0                 6           2             5    7     1       0.1745120109E+00       5    7    1         0.9485694918E+01      0.1615392278E+02
          0                 7           2             5    7     1       0.1028293526E+00       5    7    1         0.5589748633E+01      0.9532184082E+01
          0                 8           2             4    8     1       0.6071216072E-01       5    7    1         0.3293677683E+01      0.5624609344E+01
          0                 9           2             4    8     1       0.3587543081E-01       4    8    1         0.1945471901E+01      0.3318836228E+01
          0                10           2             4    8     1       0.2119895124E-01       4    8    1         0.1149597837E+01      0.1958289775E+01
                                                   Max.-Head-Change                         Max.-Flux-Residual
  Residual-Control   Outer-Iter.   Inner-Iter.     Column Row Layer    Maximum-Head-Change  Column Row Layer    Maximum-Flux-Residual          L2-NORM 
          0                11           2             4    8     1       0.1252648933E-01       4    8    1         0.6793022542E+00      0.1155493824E+01
          0                12           2             4    8     1       0.7401894659E-02       4    8    1         0.4014005836E+00      0.6818026238E+00
          0                13           2             4    8     1       0.4373763472E-02       4    8    1         0.2371873265E+00      0.4023003905E+00
          0                14           2             4    8     1       0.2584441497E-02       4    8    1         0.1401534570E+00      0.2373794751E+00
          0                15           2             4    8     1       0.1527134238E-02       4    8    1         0.8281617286E-01      0.1400673417E+00
          0                16           2             4    8     1       0.9023745974E-03       4    8    1         0.4893567539E-01      0.8264786835E-01
          0                17           2             4    8     1       0.5332067922E-03       4    8    1         0.2891579583E-01      0.4876716307E-01
          0                18           2             4    8     1       0.3150675436E-03       4    8    1         0.1708613660E-01      0.2877560054E-01
          0                19           2             4    8     1       0.1861704970E-03       4    8    1         0.1009605668E-01      0.1697940103E-01
          0                20           2             4    8     1       0.1100062235E-03       4    8    1         0.5965665260E-02      0.1001893121E-01
          0                21           1             4    8     1       0.6500137406E-04       4    8    1         0.3525049253E-02      0.5911823719E-02

    ------------------------------------------------
       NWT REQUIRED           21 OUTER ITERATIONS 
       AND A TOTAL OF         41 INNER ITERATIONS.
    ------------------------------------------------

 NO OUTPUT CONTROL FOR STRESS PERIOD    8   TIME STEP    9
 
 SOLVING FOR HEAD 
                                                   Max.-Head-Change                         Max.-Flux-Residual
  Residual-Control   Outer-Iter.   Inner-Iter.     Column Row Layer    Maximum-Head-Change  Column Row Layer    Maximum-Flux-Residual          L2-NORM 
          0                 1           2             5    7     1       0.2139089746E+01       5    7    1         0.1152977631E+03      0.2166572401E+03
          0                 2           2             5    8     1      -0.1810023311E+01       5    8    1        -0.9885277810E+02      0.1452953726E+03
          0                 3           2             4    6     1      -0.7426373656E+00       4    6    1        -0.4084031278E+02      0.6348536268E+02
          0                 4           2             4    7     1      -0.3493103437E+00       4    7    1        -0.1920678503E+02      0.2958175364E+02
          0                 5           2             4    7     1      -0.2140795721E+00       4    7    1        -0.1174434695E+02      0.1796989103E+02
          0                 6           2             4    7     1      -0.1312121604E+00       4    7    1        -0.7198522047E+01      0.1098725734E+02
          0                 7           2             4    7     1      -0.8042706093E-01       4    7    1        -0.4412016112E+01      0.6718571441E+01
          0                 8           2             4    7     1      -0.4930100769E-01       4    7    1        -0.2704339746E+01      0.4108874837E+01
          0                 9           2             4    7     1      -0.3022258022E-01       4    7    1        -0.1657718378E+01      0.2513170148E+01
          0                10           2             4    7     1      -0.1852791078E-01       4    7    1        -0.1016207089E+01      0.1537337512E+01
                                                   Max.-Head-Change                         Max.-Flux-Residual
  Residual-Control   Outer-Iter.   Inner-Iter.     Column Row Layer    Maximum-Head-Change  Column Row Layer    Maximum-Flux-Residual          L2-NORM 
          0                11           2             4    7     1      -0.1135894113E-01       4    7    1        -0.6229779154E+00      0.9405042412E+00
          0                12           2             4    7     1      -0.6964072719E-02       4    7    1        -0.3819261138E+00      0.5754303234E+00
          0                13           2             4    7     1      -0.4269731591E-02       4    7    1        -0.2341530903E+00      0.3520965601E+00
          0                14           2             4    7     1      -0.2617867420E-02       4    7    1        -0.1435595394E+00      0.2154590701E+00
          0                15           2             4    7     1      -0.1605102075E-02       4    7    1        -0.8801847089E-01      0.1318557048E+00
          0                16           2             4    7     1      -0.9841558808E-03       4    7    1        -0.5396638574E-01      0.8069779017E-01
          0                17           2             4    7     1      -0.6034340225E-03       4    7    1        -0.3308863901E-01      0.4939131475E-01
          0                18           2             4    7     1      -0.3699976161E-03       4    7    1        -0.2028798808E-01      0.3023177256E-01
          0                19           2             4    7     1      -0.2268662969E-03       4    7    1        -0.1243947766E-01      0.1850541172E-01
          0                20           1             4    7     1      -0.1391046883E-03       4    7    1        -0.7627234453E-02      0.1132802528E-01
          0                21           1             4    7     1      -0.8529296026E-04       4    7    1        -0.4676626153E-02      0.6934710365E-02

    ------------------------------------------------
       NWT REQUIRED           21 OUTER ITERATIONS 
       AND A TOTAL OF         40 INNER ITERATIONS.
    ------------------------------------------------

 OUTPUT CONTROL FOR STRESS PERIOD    8   TIME STEP   10
    PRINT BUDGET
    SAVE BUDGET
 UBDSV1 SAVING "         STORAGE" ON UNIT 102 AT TIME STEP 10, STRESS PERIOD8
 UBDSV2 SAVING "   CONSTANT HEAD" ON UNIT 102 AT TIME STEP 10, STRESS PERIOD 8
 UBDSV1 SAVING "FLOW RIGHT FACE " ON UNIT 102 AT TIME STEP 10, STRESS PERIOD8
 UBDSV1 SAVING "FLOW FRONT FACE " ON UNIT 102 AT TIME STEP 10, STRESS PERIOD8

  HEAD DEP BOUNDS   PERIOD    8   STEP    10
 BOUNDARY      1   LAYER   1   ROW    13   COL     1   RATE   -0.291513    
 BOUNDARY      2   LAYER   1   ROW    14   COL     9   RATE    0.285765    



 STREAM LISTING     PERIOD      8   STEP       10

 LAYER ROW COL. STREAM  RCH.  FLOW INTO     FLOW TO   FLOW OUT OF   OVRLND.     DIRECT     STREAM       STREAM     STREAM     STREAM   STREAMBED  STREAMBED
                SEG.NO.  NO.  STRM. RCH.    AQUIFER    STRM. RCH.    RUNOFF     PRECIP       ET          HEAD       DEPTH      WIDTH   CONDCTNC.   GRADIENT

   1    1    1     1     1    5.6250E+01  3.5875E-01   5.5891E+01  0.000E+00  0.000E+00  0.000E+00  1.09453E+03  1.479E+00  1.780E+01  8.010E-02  1.493E+00
   1    2    2     1     2    5.5891E+01  5.5550E-01   5.5336E+01  0.000E+00  0.000E+00  0.000E+00  1.08953E+03  1.473E+00  1.774E+01  1.242E-01  1.491E+00
   1    3    3     1     3    5.5336E+01  4.7368E-01   5.4862E+01  0.000E+00  0.000E+00  0.000E+00  1.08389E+03  1.467E+00  1.767E+01  1.060E-01  1.489E+00
   1    3    4     1     4    5.4862E+01  4.3613E-01   5.4426E+01  0.000E+00  0.000E+00  0.000E+00  1.07887E+03  1.461E+00  1.762E+01  9.777E-02  1.487E+00
   1    4    5     2     1    5.2426E+01  3.8056E-01   5.2046E+01  0.000E+00  0.000E+00  0.000E+00  1.07381E+03  1.879E+00  1.200E+01  7.800E-02  1.626E+00
   1    5    6     2     2    5.2046E+01  2.9230E-01   5.1753E+01  0.000E+00  0.000E+00  0.000E+00  1.06838E+03  1.872E+00  1.200E+01  6.000E-02  1.624E+00
   1    6    6     2     3    5.1753E+01  2.9192E-01   5.1461E+01  0.000E+00  0.000E+00  0.000E+00  1.06366E+03  1.865E+00  1.200E+01  6.000E-02  1.622E+00
   1    7    6     2     4    5.1461E+01  2.9154E-01   5.1170E+01  0.000E+00  0.000E+00  0.000E+00  1.05893E+03  1.859E+00  1.200E+01  6.000E-02  1.620E+00
   1    8    6     2     5    5.1170E+01  2.9116E-01   5.0879E+01  0.000E+00  0.000E+00  0.000E+00  1.05421E+03  1.853E+00  1.200E+01  6.000E-02  1.618E+00
   1    3    5     3     1    2.0000E+00  2.8252E-01   1.7175E+00  0.000E+00  0.000E+00  0.000E+00  1.07555E+03  1.909E+00  9.636E+00  7.227E-02  1.955E+00
   1    3    6     3     2    1.7175E+00  2.4905E-01   1.4684E+00  0.000E+00  0.000E+00  0.000E+00  1.07264E+03  1.727E+00  8.909E+00  6.682E-02  1.864E+00
   1    3    7     3     3    1.4684E+00  1.9718E-01   1.2712E+00  0.000E+00  0.000E+00  0.000E+00  1.06987E+03  1.555E+00  8.218E+00  5.547E-02  1.777E+00
   1    4    8     3     4    1.2712E+00  2.2567E-01   1.0456E+00  0.000E+00  0.000E+00  0.000E+00  1.06682E+03  1.364E+00  7.455E+00  6.709E-02  1.682E+00
   1    5    8     3     5    1.0456E+00  1.5790E-01   8.8768E-01  0.000E+00  0.000E+00  0.000E+00  1.06362E+03  1.164E+00  6.655E+00  4.991E-02  1.582E+00
   1    6    8     3     6    8.8768E-01  5.5980E-02   8.3170E-01  0.000E+00  0.000E+00  0.000E+00  1.06158E+03  1.036E+00  6.145E+00  1.844E-02  1.518E+00
   1    5   10     4     1    1.0000E+01  9.0919E-02   9.9091E+00  0.000E+00  0.000E+00  0.000E+00  1.07836E+03  6.368E-01  1.000E+01  2.500E-02  1.212E+00
   1    5    9     4     2    9.9091E+00  1.8158E-01   9.7275E+00  0.000E+00  0.000E+00  0.000E+00  1.07154E+03  6.315E-01  1.000E+01  5.000E-02  1.211E+00
   1    6    8     4     3    9.7275E+00  1.2689E-01   9.6006E+00  0.000E+00  0.000E+00  0.000E+00  1.06381E+03  6.256E-01  1.000E+01  3.500E-02  1.209E+00
   1    6    8     5     1    1.0432E+01  2.2686E-01   1.0205E+01  0.000E+00  0.000E+00  0.000E+00  1.05868E+03  6.790E-01  1.542E+01  6.166E-02  1.226E+00
   1    7    7     5     2    1.0205E+01  2.7894E-01   9.9265E+00  0.000E+00  0.000E+00  0.000E+00  1.05417E+03  6.732E-01  1.519E+01  7.594E-02  1.224E+00
   1    8    7     5     3    9.9265E+00  1.9221E-01   9.7343E+00  0.000E+00  0.000E+00  0.000E+00  1.04992E+03  6.676E-01  1.497E+01  5.241E-02  1.223E+00
   1    8    6     5     4    9.7343E+00  1.3577E-01   9.5985E+00  0.000E+00  0.000E+00  0.000E+00  1.04691E+03  6.637E-01  1.482E+01  3.706E-02  1.221E+00
   1    9    6     6     1    9.5985E+00  2.2097E-01   9.3776E+00  0.000E+00  0.000E+00  0.000E+00  1.04341E+03  6.828E-01  1.200E+01  6.000E-02  1.228E+00
   1   10    7     6     2    9.3776E+00  2.2039E-01   9.1572E+00  0.000E+00  0.000E+00  0.000E+00  1.03885E+03  6.732E-01  1.200E+01  6.000E-02  1.224E+00
   1   11    7     6     3    9.1572E+00  2.1981E-01   8.9374E+00  0.000E+00  0.000E+00  0.000E+00  1.03430E+03  6.636E-01  1.200E+01  6.000E-02  1.221E+00
   1   12    7     6     4    8.9374E+00  2.1923E-01   8.7181E+00  0.000E+00  0.000E+00  0.000E+00  1.02974E+03  6.539E-01  1.200E+01  6.000E-02  1.218E+00
   1   13    7     6     5    8.7181E+00 -1.3716E-01   8.8553E+00  0.000E+00  0.000E+00  0.000E+00  1.02656E+03  6.520E-01  1.200E+01  2.400E-01 -1.905E-01
   1   14    9     7     1    1.5000E+02  1.3359E+00   1.4866E+02  0.000E+00  0.000E+00  0.000E+00  1.03987E+03  2.288E+00  5.529E+01  5.593E-01  7.962E-01
   1   13    8     7     2    1.4866E+02  1.8200E+00   1.4684E+02  0.000E+00  0.000E+00  0.000E+00  1.03478E+03  2.279E+00  5.526E+01  6.148E-01  9.868E-01
   1   13    7     7     3    1.4684E+02  1.4282E+00   1.4542E+02  0.000E+00  0.000E+00  0.000E+00  1.02969E+03  2.271E+00  5.522E+01  5.585E-01  8.525E-01
   1   13    6     8     1    1.5427E+02  7.8183E-01   1.5349E+02  0.000E+00  0.000E+00  0.000E+00  1.02472E+03  2.844E+00  4.124E+01  4.202E-01  6.202E-01
   1   13    5     8     2    1.5349E+02  6.1260E-02   1.5343E+02  0.000E+00  0.000E+00  0.000E+00  1.01847E+03  2.841E+00  4.119E+01  4.198E-01  4.864E-02
   1   13    4     8     3    1.5343E+02 -3.0216E+00   1.5645E+02  0.000E+00  0.000E+00  0.000E+00  1.01223E+03  2.851E+00  4.134E+01  4.213E+00 -2.391E-01
   1   13    3     8     4    1.5645E+02 -4.0968E+00   1.6055E+02  0.000E+00  0.000E+00  0.000E+00  1.00600E+03  2.876E+00  4.170E+01  4.249E+00 -3.214E-01
   1   13    2     8     5    1.6055E+02 -3.0199E+00   1.6357E+02  0.000E+00  0.000E+00  0.000E+00  9.99775E+02  2.900E+00  4.205E+01  4.285E+00 -2.349E-01
   1   13    1     8     6    1.6357E+02 -2.2735E+00   1.6584E+02  0.000E+00  0.000E+00  0.000E+00  9.94792E+02  2.917E+00  4.230E+01  2.586E+00 -2.930E-01
   1    8    6     9     1    5.0879E+01  0.0000E+00   5.0879E+01  0.000E+00  0.000E+00  0.000E+00  1.08476E+03  6.014E+00  4.000E+00  0.000E+00  3.005E+00
   1    8    5     9     2    5.0879E+01  0.0000E+00   5.0879E+01  0.000E+00  0.000E+00  0.000E+00  1.08426E+03  6.014E+00  4.000E+00  0.000E+00  3.005E+00



 UBDSV3 SAVING "           GW ET" ON UNIT  61 AT TIME STEP 10, STRESS PERIOD 8
 UBDSV3 SAVING "    UZF RECHARGE" ON UNIT  61 AT TIME STEP 10, STRESS PERIOD 8
 UBDSV3 SAVING " SURFACE LEAKAGE" ON UNIT  61 AT TIME STEP 10, STRESS PERIOD 8
 UBDSV3 SAVING "       HORT+DUNN" ON UNIT  61 AT TIME STEP 10, STRESS PERIOD 8
 UBDSV3 SAVING "  STORAGE CHANGE" ON UNIT  61 AT TIME STEP 10, STRESS PERIOD 8


UNSATURATED ZONE PACKAGE VOLUMETRIC BUDGET FOR  TIME STEP    10 STRESS PERIOD    8
  ------------------------------------------------------------------------------



     CUMULATIVE VOLUMES      L**3       RATES FOR THIS TIME STEP      L**3/T
     ------------------                 ------------------------

           IN:                                      IN:
           ---                                      ---
        INFILTRATION =  1172270492.7828          INFILTRATION =         651.7272

          OUT:                                     OUT:
          ----                                     ----
              UZF ET =   155482928.3737                UZF ET =          60.8175
        UZF RECHARGE =   224346720.3125          UZF RECHARGE =         409.3769

            IN - OUT =   792440844.0966              IN - OUT =         181.5329

          STORAGE:                                 STORAGE:
          --------                                 --------
      STORAGE CHANGE =   792896563.4812        STORAGE CHANGE =         181.5328

 PERCENT DISCREPANCY IS DIFFERENCE BETWEEN IN-OUT MINUS CHANGE IN STORAGE
 DIVIDED BY THE AVERAGE OF IN AND OUT TIMES 100

 PERCENT DISCREPANCY =          -0.01     PERCENT DISCREPANCY =           0.00






 

            AG WELLS      PERIOD    8   STEP  10
 AG WELL      1   LAYER   1   ROW     6   COL     4   RATE    -100.000    
 AG WELL      2   LAYER   1   ROW     6   COL     5   RATE    -100.000    
 AG WELL      3   LAYER   1   ROW     7   COL     4   RATE    -100.000    
 AG WELL      4   LAYER   1   ROW     7   COL     5   RATE    -100.000    
 AG WELL      5   LAYER   1   ROW     8   COL     4   RATE    -100.000    
 AG WELL      6   LAYER   1   ROW     8   COL     5   RATE    -100.000    
 
 

   DIVERSION SEGMENTS     PERIOD    8   STEP  10
 SEGMENT      9   RATE     50.8787    
 
 

        SW IRRIGATION     PERIOD    8   STEP  10
 SEGMENT      9   ROW     6   COL     4   RATE     8.47995    
 SEGMENT      9   ROW     6   COL     5   RATE     8.47995    
 SEGMENT      9   ROW     7   COL     4   RATE     8.47995    
 SEGMENT      9   ROW     7   COL     5   RATE     8.47995    
 SEGMENT      9   ROW     8   COL     4   RATE     8.47995    
 SEGMENT      9   ROW     8   COL     5   RATE     8.47995    
 
 

        GW IRRIGATION     PERIOD    8   STEP  10
 AG WELL      1   ROW     6   COL     4   RATE     100.000    
 AG WELL      2   ROW     6   COL     5   RATE     100.000    
 AG WELL      3   ROW     7   COL     4   RATE     100.000    
 AG WELL      4   ROW     7   COL     5   RATE     100.000    
 AG WELL      5   ROW     8   COL     4   RATE     100.000    
 AG WELL      6   ROW     8   COL     5   RATE     100.000    
 
1
  VOLUMETRIC BUDGET FOR AGRICULTURAL FIELDS AT  END OF TIME STEP   10, STRESS PERIOD   8
  ------------------------------------------------------------------------------

     CUMULATIVE VOLUMES      L**3       RATES FOR THIS TIME STEP      L**3/T
     ------------------                 ------------------------

           IN:                                      IN:
           ---                                      ---
               AG WELLS  =  1017261376.0000                 AG WELLS  =         600.0000
      DIVERSION SEGMENTS =   140829056.0000        DIVERSION SEGMENTS =          50.8787
       IRRIGATION PONDS  =           0.0000         IRRIGATION PONDS  =           0.0000
           GW IRRIGATION =           0.0000             GW IRRIGATION =           0.0000
           SW IRRIGATION =           0.0000             SW IRRIGATION =           0.0000
        SYSTEM LOSSES GW =           0.0000          SYSTEM LOSSES GW =           0.0000
        SYSTEM LOSSES SW =           0.0000          SYSTEM LOSSES SW =           0.0000

                TOTAL IN =  1158090496.0000                  TOTAL IN =         650.8787

          OUT:                                     OUT:
          ----                                     ----
               AG WELLS  =           0.0000                 AG WELLS  =           0.0000
      DIVERSION SEGMENTS =           0.0000        DIVERSION SEGMENTS =           0.0000
       IRRIGATION PONDS  =           0.0000         IRRIGATION PONDS  =           0.0000
           GW IRRIGATION =  1017261376.0000             GW IRRIGATION =         600.0000
           SW IRRIGATION =   140831840.0000             SW IRRIGATION =          50.8797
        SYSTEM LOSSES GW =           0.0000          SYSTEM LOSSES GW =           0.0000
        SYSTEM LOSSES SW =           0.0000          SYSTEM LOSSES SW =           0.0000

               TOTAL OUT =  1158093184.0000                 TOTAL OUT =         650.8796

                IN - OUT =       -2688.0000                  IN - OUT =      -9.7656E-04

     PERCENT DISCREPANCY =          -0.00         PERCENT DISCREPANCY =          -0.00



1
  VOLUMETRIC BUDGET FOR ENTIRE MODEL AT END OF TIME STEP   10, STRESS PERIOD   8
  ------------------------------------------------------------------------------

     CUMULATIVE VOLUMES      L**3       RATES FOR THIS TIME STEP      L**3/T
     ------------------                 ------------------------

           IN:                                      IN:
           ---                                      ---
             STORAGE     =  1221101312.0000               STORAGE     =         280.9659
       CONSTANT HEAD     =           0.0000         CONSTANT HEAD     =           0.0000
     HEAD DEP BOUNDS     =     4783869.0000       HEAD DEP BOUNDS     =           0.2858
      STREAM LEAKAGE     =   204877664.0000        STREAM LEAKAGE     =          12.0807
        UZF RECHARGE     =   224346720.0000          UZF RECHARGE     =         409.3769
               GW ET     =           0.0000                 GW ET     =           0.0000
     SURFACE LEAKAGE     =           0.0000       SURFACE LEAKAGE     =           0.0000
           AG WELLS      =           0.0000             AG WELLS      =           0.0000

                TOTAL IN =  1655109632.0000                  TOTAL IN =         702.7092

          OUT:                                     OUT:
          ----                                     ----
             STORAGE     =   453348928.0000               STORAGE     =          89.8770
       CONSTANT HEAD     =           0.0000         CONSTANT HEAD     =           0.0000
     HEAD DEP BOUNDS     =     4887353.5000       HEAD DEP BOUNDS     =           0.2915
      STREAM LEAKAGE     =   178408368.0000        STREAM LEAKAGE     =          12.5489
        UZF RECHARGE     =           0.0000          UZF RECHARGE     =           0.0000
               GW ET     =     1207612.8750                 GW ET     =           0.0000
     SURFACE LEAKAGE     =           0.0000       SURFACE LEAKAGE     =           0.0000
           AG WELLS      =  1017261376.0000             AG WELLS      =         600.0000

               TOTAL OUT =  1655113728.0000                 TOTAL OUT =         702.7174

                IN - OUT =       -4096.0000                  IN - OUT =      -8.1787E-03

     PERCENT DISCREPANCY =          -0.00         PERCENT DISCREPANCY =          -0.00






         TIME SUMMARY AT END OF TIME STEP   10 IN STRESS PERIOD    8
                    SECONDS     MINUTES      HOURS       DAYS        YEARS
                    -----------------------------------------------------------
   TIME STEP LENGTH  87667.      1461.1      24.352      1.0147     2.77799E-03
 STRESS PERIOD TIME 8.76667E+05  14611.      243.52      10.147     2.77799E-02
         TOTAL TIME 1.67431E+07 2.79052E+05  4650.9      193.79     0.53056    
1
 
 SOLVING FOR HEAD 
                                                   Max.-Head-Change                         Max.-Flux-Residual
  Residual-Control   Outer-Iter.   Inner-Iter.     Column Row Layer    Maximum-Head-Change  Column Row Layer    Maximum-Flux-Residual          L2-NORM 
          0                 1           2             4    7     1       0.2546142004E+01       4    7    1         0.1341133729E+03      0.2490648139E+03
          0                 2           2             4    7     1       0.1513307396E+01       4    7    1         0.8036401982E+02      0.1317307568E+03
          0                 3           2             4    7     1       0.9395332137E+00       4    7    1         0.5027792305E+02      0.6797489953E+02
          0                 4           2             4    7     1       0.5618499963E+00       4    7    1         0.3017400549E+02      0.3846597787E+02
          0                 5           2             4    7     1       0.3353661611E+00       4    7    1         0.1803398899E+02      0.2282518140E+02
          0                 6           2             4    7     1       0.2000482698E+00       4    7    1         0.1076218965E+02      0.1363028896E+02
          0                 7           2             4    7     1       0.1193061218E+00       4    7    1         0.6419268079E+01      0.8144824347E+01
          0                 8           2             4    7     1       0.7115014474E-01       4    7    1         0.3828289603E+01      0.4867050693E+01
          0                 9           2             4    7     1       0.4243271190E-01       4    7    1         0.2283059867E+01      0.2908320348E+01
          0                10           2             4    7     1       0.2530738862E-01       4    7    1         0.1361584763E+01      0.1737869170E+01
                                                   Max.-Head-Change                         Max.-Flux-Residual
  Residual-Control   Outer-Iter.   Inner-Iter.     Column Row Layer    Maximum-Head-Change  Column Row Layer    Maximum-Flux-Residual          L2-NORM 
          0                11           2             4    7     1       0.1509449467E-01       4    7    1         0.8120721396E+00      0.1038470548E+01
          0                12           2             4    7     1       0.9003580668E-02       4    7    1         0.4843614043E+00      0.6205474968E+00
          0                13           2             4    7     1       0.5370778176E-02       4    7    1         0.2889148864E+00      0.3708173292E+00
          0                14           2             4    7     1       0.3203936864E-02       4    7    1         0.1723437449E+00      0.2215894912E+00
          0                15           2             4    7     1       0.1911414381E-02       4    7    1         0.1028124770E+00      0.1324165561E+00
          0                16           2             4    7     1       0.1140379147E-02       4    7    1         0.6133666919E-01      0.7912964197E-01
          0                17           2             4    7     1       0.6804035200E-03       4    7    1         0.3659468179E-01      0.4728677342E-01
          0                18           2             4    7     1       0.4059813274E-03       4    7    1         0.2183426276E-01      0.2825813645E-01
          0                19           2             4    7     1       0.2422518812E-03       4    7    1         0.1302810406E-01      0.1688692247E-01
          0                20           2             4    7     1       0.1445603638E-03       4    7    1         0.7774015554E-02      0.1009161010E-01
          0                21           1             4    7     1       0.8626838723E-04       4    7    1         0.4639065212E-02      0.6030775901E-02

    ------------------------------------------------
       NWT REQUIRED           21 OUTER ITERATIONS 
       AND A TOTAL OF         41 INNER ITERATIONS.
    ------------------------------------------------

 NO OUTPUT CONTROL FOR STRESS PERIOD    8   TIME STEP   11
 
 SOLVING FOR HEAD 
                                                   Max.-Head-Change                         Max.-Flux-Residual
  Residual-Control   Outer-Iter.   Inner-Iter.     Column Row Layer    Maximum-Head-Change  Column Row Layer    Maximum-Flux-Residual          L2-NORM 
          0                 1           2             4    6     1       0.2364712425E+01       4    6    1         0.1273306086E+03      0.1793401888E+03
          0                 2           2             5    8     1      -0.1862390681E+01       5    6    1        -0.9980944740E+02      0.2022423493E+03
          0                 3           2             4    7     1      -0.3044357951E+00       4    7    1        -0.1698349972E+02      0.2849581909E+02
          0                 4           2             4    7     1      -0.1852583924E+00       4    7    1        -0.1022245815E+02      0.1399976780E+02
          0                 5           2             4    7     1      -0.1127364883E+00       4    7    1        -0.6224953540E+01      0.8502461043E+01
          0                 6           2             4    7     1      -0.6860379531E-01       4    7    1        -0.3787993900E+01      0.5173431881E+01
          0                 7           2             4    7     1      -0.4174734186E-01       4    7    1        -0.2305080619E+01      0.3148006736E+01
          0                 8           2             4    7     1      -0.2540425475E-01       4    7    1        -0.1402684357E+01      0.1915530460E+01
          0                 9           2             4    7     1      -0.1545898524E-01       4    7    1        -0.8535535681E+00      0.1165574654E+01
          0                10           2             4    7     1      -0.9407026628E-02       4    7    1        -0.5193959177E+00      0.7092324699E+00
                                                   Max.-Head-Change                         Max.-Flux-Residual
  Residual-Control   Outer-Iter.   Inner-Iter.     Column Row Layer    Maximum-Head-Change  Column Row Layer    Maximum-Flux-Residual          L2-NORM 
          0                11           2             4    7     1      -0.5724276755E-02       4    7    1        -0.3160553651E+00      0.4315534316E+00
          0                12           2             4    7     1      -0.3483258709E-02       4    7    1        -0.1923200984E+00      0.2625898674E+00
          0                13           2             4    7     1      -0.2119569724E-02       4    7    1        -0.1170261845E+00      0.1597786562E+00
          0                14           2             4    7     1      -0.1289753040E-02       4    7    1        -0.7120955812E-01      0.9722030229E-01
          0                15           2             4    7     1      -0.7848059774E-03       4    7    1        -0.4333017241E-01      0.5915515094E-01
          0                16           2             4    7     1      -0.4775457085E-03       4    7    1        -0.2636570785E-01      0.3599362271E-01
          0                17           2             4    7     1      -0.2905791888E-03       4    7    1        -0.1604299170E-01      0.2190059657E-01
          0                18           2             4    7     1      -0.1768116987E-03       4    7    1        -0.9761761660E-02      0.1332550635E-01
          0                19           1             4    7     1      -0.1075856702E-03       4    7    1        -0.5939747351E-02      0.8107909391E-02
          0                20           1             4    7     1      -0.6546283638E-04       4    7    1        -0.3614137649E-02      0.4933230904E-02

    ------------------------------------------------
       NWT REQUIRED           20 OUTER ITERATIONS 
       AND A TOTAL OF         38 INNER ITERATIONS.
    ------------------------------------------------

 NO OUTPUT CONTROL FOR STRESS PERIOD    8   TIME STEP   12
 
 SOLVING FOR HEAD 
                                                   Max.-Head-Change                         Max.-Flux-Residual
  Residual-Control   Outer-Iter.   Inner-Iter.     Column Row Layer    Maximum-Head-Change  Column Row Layer    Maximum-Flux-Residual          L2-NORM 
          0                 1           2             4    6     1       0.2079011693E+01       4    6    1         0.1126958355E+03      0.1233679148E+03
          0                 2           2             4    6     1       0.4317604529E+00       4    6    1         0.2342541635E+02      0.2568147068E+02
          0                 3           2             4    6     1       0.1265173027E+00       4    6    1         0.6816181374E+01      0.8594312832E+01
          0                 4           2             4    6     1       0.2821185465E-01       4    6    1         0.1526671734E+01      0.1778285357E+01
          0                 5           2             4    6     1       0.6292847827E-02       4    6    1         0.3401976051E+00      0.3975152849E+00
          0                 6           2             4    6     1       0.1404074952E-02       4    6    1         0.7588997178E-01      0.8925450708E-01
          0                 7           2             4    6     1       0.3133701790E-03       4    6    1         0.1693430573E-01      0.2004486992E-01
          0                 8           1             4    6     1       0.6995946508E-04       4    6    1         0.3779833907E-02      0.4502595978E-02

    ------------------------------------------------
       NWT REQUIRED            8 OUTER ITERATIONS 
       AND A TOTAL OF         15 INNER ITERATIONS.
    ------------------------------------------------

 NO OUTPUT CONTROL FOR STRESS PERIOD    8   TIME STEP   13
 
 SOLVING FOR HEAD 
                                                   Max.-Head-Change                         Max.-Flux-Residual
  Residual-Control   Outer-Iter.   Inner-Iter.     Column Row Layer    Maximum-Head-Change  Column Row Layer    Maximum-Flux-Residual          L2-NORM 
          0                 1           2             5    8     1       0.3558585846E+00       5    8    1         0.1950119924E+02      0.2604189889E+02
          0                 2           2             5    7     1      -0.2117599604E+00       5    7    1        -0.1169740189E+02      0.2388898873E+02
          0                 3           2             4    6     1      -0.4229742505E-01       4    6    1        -0.2352958827E+01      0.3536743605E+01
          0                 4           2             4    7     1      -0.9681382413E-02       4    7    1        -0.5412948784E+00      0.5536821044E+00
          0                 5           1             4    7     1      -0.2346223189E-02       4    7    1        -0.1311690609E+00      0.1399655657E+00
          0                 6           1             4    7     1      -0.5687161434E-03       4    7    1        -0.3179164341E-01      0.4291220570E-01
          0                 7           1             5    8     1      -0.3001591188E-03       5    8    1        -0.1702487501E-01      0.1868778954E-01
          0                 8           1             5    8     1      -0.1772183148E-03       5    8    1        -0.1005299013E-01      0.1022529276E-01
          0                 9           1             5    8     1      -0.1046255213E-03       5    8    1        -0.5935320594E-02      0.5952677750E-02
          0                10           1             5    8     1      -0.6176657319E-04       5    8    1        -0.3504013922E-02      0.3505772760E-02

    ------------------------------------------------
       NWT REQUIRED           10 OUTER ITERATIONS 
       AND A TOTAL OF         14 INNER ITERATIONS.
    ------------------------------------------------

 NO OUTPUT CONTROL FOR STRESS PERIOD    8   TIME STEP   14
 
 SOLVING FOR HEAD 
                                                   Max.-Head-Change                         Max.-Flux-Residual
  Residual-Control   Outer-Iter.   Inner-Iter.     Column Row Layer    Maximum-Head-Change  Column Row Layer    Maximum-Flux-Residual          L2-NORM 
          0                 1           2             5    8     1       0.4489404578E+00       5    8    1         0.2461412006E+02      0.3004781376E+02
          0                 2           2             5    7     1      -0.1002175151E+00       5    7    1        -0.5567527681E+01      0.9243445150E+01
          0                 3           2             5    7     1       0.6771732695E-01       5    7    1         0.3795783274E+01      0.7679257978E+01
          0                 4           2             5    7     1      -0.1006161649E+00       5    6    1        -0.5793828088E+01      0.1257484716E+02
          0                 5           2             4    8     1      -0.4823817801E-01       4    8    1        -0.2807438338E+01      0.3673379125E+01
          0                 6           2             4    7     1      -0.7299540944E-02       4    7    1        -0.4243020125E+00      0.6688790716E+00
          0                 7           2             4    7     1      -0.2093897862E-02       4    7    1        -0.1221172298E+00      0.1817469685E+00
          0                 8           1             4    7     1      -0.5924953439E-03       4    7    1        -0.3502307414E-01      0.3887349995E-01
          0                 9           1             4    7     1      -0.1676431585E-03       4    7    1        -0.9904341764E-02      0.1068170607E-01
          0                10           1             4    7     1      -0.4743086094E-04       4    7    1        -0.2802156358E-02      0.2959596001E-02

    ------------------------------------------------
       NWT REQUIRED           10 OUTER ITERATIONS 
       AND A TOTAL OF         17 INNER ITERATIONS.
    ------------------------------------------------

 OUTPUT CONTROL FOR STRESS PERIOD    8   TIME STEP   15
    PRINT BUDGET
    SAVE BUDGET
 UBDSV1 SAVING "         STORAGE" ON UNIT 102 AT TIME STEP 15, STRESS PERIOD8
 UBDSV2 SAVING "   CONSTANT HEAD" ON UNIT 102 AT TIME STEP 15, STRESS PERIOD 8
 UBDSV1 SAVING "FLOW RIGHT FACE " ON UNIT 102 AT TIME STEP 15, STRESS PERIOD8
 UBDSV1 SAVING "FLOW FRONT FACE " ON UNIT 102 AT TIME STEP 15, STRESS PERIOD8

  HEAD DEP BOUNDS   PERIOD    8   STEP    15
 BOUNDARY      1   LAYER   1   ROW    13   COL     1   RATE   -0.291018    
 BOUNDARY      2   LAYER   1   ROW    14   COL     9   RATE    0.285764    



 STREAM LISTING     PERIOD      8   STEP       15

 LAYER ROW COL. STREAM  RCH.  FLOW INTO     FLOW TO   FLOW OUT OF   OVRLND.     DIRECT     STREAM       STREAM     STREAM     STREAM   STREAMBED  STREAMBED
                SEG.NO.  NO.  STRM. RCH.    AQUIFER    STRM. RCH.    RUNOFF     PRECIP       ET          HEAD       DEPTH      WIDTH   CONDCTNC.   GRADIENT

   1    1    1     1     1    5.6250E+01  3.5874E-01   5.5891E+01  0.000E+00  0.000E+00  0.000E+00  1.09453E+03  1.479E+00  1.780E+01  8.010E-02  1.493E+00
   1    2    2     1     2    5.5891E+01  5.5550E-01   5.5335E+01  0.000E+00  0.000E+00  0.000E+00  1.08953E+03  1.473E+00  1.774E+01  1.242E-01  1.491E+00
   1    3    3     1     3    5.5335E+01  4.7368E-01   5.4862E+01  0.000E+00  0.000E+00  0.000E+00  1.08389E+03  1.467E+00  1.767E+01  1.060E-01  1.489E+00
   1    3    4     1     4    5.4862E+01  4.3613E-01   5.4426E+01  0.000E+00  0.000E+00  0.000E+00  1.07887E+03  1.461E+00  1.762E+01  9.777E-02  1.487E+00
   1    4    5     2     1    5.2426E+01  3.8056E-01   5.2045E+01  0.000E+00  0.000E+00  0.000E+00  1.07381E+03  1.879E+00  1.200E+01  7.800E-02  1.626E+00
   1    5    6     2     2    5.2045E+01  2.9230E-01   5.1753E+01  0.000E+00  0.000E+00  0.000E+00  1.06838E+03  1.872E+00  1.200E+01  6.000E-02  1.624E+00
   1    6    6     2     3    5.1753E+01  2.9192E-01   5.1461E+01  0.000E+00  0.000E+00  0.000E+00  1.06366E+03  1.865E+00  1.200E+01  6.000E-02  1.622E+00
   1    7    6     2     4    5.1461E+01  2.9154E-01   5.1169E+01  0.000E+00  0.000E+00  0.000E+00  1.05893E+03  1.859E+00  1.200E+01  6.000E-02  1.620E+00
   1    8    6     2     5    5.1169E+01  2.9116E-01   5.0878E+01  0.000E+00  0.000E+00  0.000E+00  1.05421E+03  1.853E+00  1.200E+01  6.000E-02  1.618E+00
   1    3    5     3     1    2.0000E+00  2.8252E-01   1.7175E+00  0.000E+00  0.000E+00  0.000E+00  1.07555E+03  1.909E+00  9.636E+00  7.227E-02  1.955E+00
   1    3    6     3     2    1.7175E+00  2.4905E-01   1.4684E+00  0.000E+00  0.000E+00  0.000E+00  1.07264E+03  1.727E+00  8.909E+00  6.682E-02  1.864E+00
   1    3    7     3     3    1.4684E+00  1.9718E-01   1.2712E+00  0.000E+00  0.000E+00  0.000E+00  1.06987E+03  1.555E+00  8.218E+00  5.547E-02  1.777E+00
   1    4    8     3     4    1.2712E+00  2.2567E-01   1.0456E+00  0.000E+00  0.000E+00  0.000E+00  1.06682E+03  1.364E+00  7.455E+00  6.709E-02  1.682E+00
   1    5    8     3     5    1.0456E+00  1.5790E-01   8.8768E-01  0.000E+00  0.000E+00  0.000E+00  1.06362E+03  1.164E+00  6.655E+00  4.991E-02  1.582E+00
   1    6    8     3     6    8.8768E-01  5.5980E-02   8.3170E-01  0.000E+00  0.000E+00  0.000E+00  1.06158E+03  1.036E+00  6.145E+00  1.844E-02  1.518E+00
   1    5   10     4     1    1.0000E+01  9.0919E-02   9.9091E+00  0.000E+00  0.000E+00  0.000E+00  1.07836E+03  6.368E-01  1.000E+01  2.500E-02  1.212E+00
   1    5    9     4     2    9.9091E+00  1.8158E-01   9.7275E+00  0.000E+00  0.000E+00  0.000E+00  1.07154E+03  6.315E-01  1.000E+01  5.000E-02  1.211E+00
   1    6    8     4     3    9.7275E+00  1.2689E-01   9.6006E+00  0.000E+00  0.000E+00  0.000E+00  1.06381E+03  6.256E-01  1.000E+01  3.500E-02  1.209E+00
   1    6    8     5     1    1.0432E+01  2.2686E-01   1.0205E+01  0.000E+00  0.000E+00  0.000E+00  1.05868E+03  6.790E-01  1.542E+01  6.166E-02  1.226E+00
   1    7    7     5     2    1.0205E+01  2.7894E-01   9.9265E+00  0.000E+00  0.000E+00  0.000E+00  1.05417E+03  6.732E-01  1.519E+01  7.594E-02  1.224E+00
   1    8    7     5     3    9.9265E+00  1.9221E-01   9.7343E+00  0.000E+00  0.000E+00  0.000E+00  1.04992E+03  6.676E-01  1.497E+01  5.241E-02  1.223E+00
   1    8    6     5     4    9.7343E+00  1.3577E-01   9.5985E+00  0.000E+00  0.000E+00  0.000E+00  1.04691E+03  6.637E-01  1.482E+01  3.706E-02  1.221E+00
   1    9    6     6     1    9.5985E+00  2.2097E-01   9.3776E+00  0.000E+00  0.000E+00  0.000E+00  1.04341E+03  6.828E-01  1.200E+01  6.000E-02  1.228E+00
   1   10    7     6     2    9.3776E+00  2.2039E-01   9.1572E+00  0.000E+00  0.000E+00  0.000E+00  1.03885E+03  6.732E-01  1.200E+01  6.000E-02  1.224E+00
   1   11    7     6     3    9.1572E+00  2.1981E-01   8.9374E+00  0.000E+00  0.000E+00  0.000E+00  1.03430E+03  6.636E-01  1.200E+01  6.000E-02  1.221E+00
   1   12    7     6     4    8.9374E+00  2.1923E-01   8.7181E+00  0.000E+00  0.000E+00  0.000E+00  1.02974E+03  6.539E-01  1.200E+01  6.000E-02  1.218E+00
   1   13    7     6     5    8.7181E+00 -1.3617E-01   8.8543E+00  0.000E+00  0.000E+00  0.000E+00  1.02656E+03  6.520E-01  1.200E+01  2.400E-01 -1.891E-01
   1   14    9     7     1    1.5000E+02  1.3359E+00   1.4866E+02  0.000E+00  0.000E+00  0.000E+00  1.03987E+03  2.288E+00  5.529E+01  5.593E-01  7.962E-01
   1   13    8     7     2    1.4866E+02  1.8202E+00   1.4684E+02  0.000E+00  0.000E+00  0.000E+00  1.03478E+03  2.279E+00  5.526E+01  6.148E-01  9.869E-01
   1   13    7     7     3    1.4684E+02  1.4305E+00   1.4541E+02  0.000E+00  0.000E+00  0.000E+00  1.02969E+03  2.271E+00  5.522E+01  5.585E-01  8.538E-01
   1   13    6     8     1    1.5427E+02  7.8525E-01   1.5348E+02  0.000E+00  0.000E+00  0.000E+00  1.02472E+03  2.844E+00  4.124E+01  4.202E-01  6.229E-01
   1   13    5     8     2    1.5348E+02  6.5328E-02   1.5342E+02  0.000E+00  0.000E+00  0.000E+00  1.01847E+03  2.841E+00  4.119E+01  4.198E-01  5.187E-02
   1   13    4     8     3    1.5342E+02 -2.9730E+00   1.5639E+02  0.000E+00  0.000E+00  0.000E+00  1.01223E+03  2.851E+00  4.134E+01  4.213E+00 -2.352E-01
   1   13    3     8     4    1.5639E+02 -4.0567E+00   1.6045E+02  0.000E+00  0.000E+00  0.000E+00  1.00600E+03  2.875E+00  4.169E+01  4.248E+00 -3.183E-01
   1   13    2     8     5    1.6045E+02 -2.9665E+00   1.6341E+02  0.000E+00  0.000E+00  0.000E+00  9.99774E+02  2.899E+00  4.203E+01  4.283E+00 -2.309E-01
   1   13    1     8     6    1.6341E+02 -2.2419E+00   1.6566E+02  0.000E+00  0.000E+00  0.000E+00  9.94791E+02  2.916E+00  4.229E+01  2.585E+00 -2.890E-01
   1    8    6     9     1    5.0878E+01  0.0000E+00   5.0878E+01  0.000E+00  0.000E+00  0.000E+00  1.08476E+03  6.014E+00  4.000E+00  0.000E+00  3.005E+00
   1    8    5     9     2    5.0878E+01  0.0000E+00   5.0878E+01  0.000E+00  0.000E+00  0.000E+00  1.08426E+03  6.014E+00  4.000E+00  0.000E+00  3.005E+00



 UBDSV3 SAVING "           GW ET" ON UNIT  61 AT TIME STEP 15, STRESS PERIOD 8
 UBDSV3 SAVING "    UZF RECHARGE" ON UNIT  61 AT TIME STEP 15, STRESS PERIOD 8
 UBDSV3 SAVING " SURFACE LEAKAGE" ON UNIT  61 AT TIME STEP 15, STRESS PERIOD 8
 UBDSV3 SAVING "       HORT+DUNN" ON UNIT  61 AT TIME STEP 15, STRESS PERIOD 8
 UBDSV3 SAVING "  STORAGE CHANGE" ON UNIT  61 AT TIME STEP 15, STRESS PERIOD 8


UNSATURATED ZONE PACKAGE VOLUMETRIC BUDGET FOR  TIME STEP    15 STRESS PERIOD    8
  ------------------------------------------------------------------------------



     CUMULATIVE VOLUMES      L**3       RATES FOR THIS TIME STEP      L**3/T
     ------------------                 ------------------------

           IN:                                      IN:
           ---                                      ---
        INFILTRATION =  1251791735.0747          INFILTRATION =          95.5678

          OUT:                                     OUT:
          ----                                     ----
              UZF ET =   182182169.6031                UZF ET =          60.8175
        UZF RECHARGE =   376231049.3672          UZF RECHARGE =          33.9400

            IN - OUT =   693378516.1044              IN - OUT =           0.8103

          STORAGE:                                 STORAGE:
          --------                                 --------
      STORAGE CHANGE =   693834232.6766        STORAGE CHANGE =           0.8103

 PERCENT DISCREPANCY IS DIFFERENCE BETWEEN IN-OUT MINUS CHANGE IN STORAGE
 DIVIDED BY THE AVERAGE OF IN AND OUT TIMES 100

 PERCENT DISCREPANCY =          -0.01     PERCENT DISCREPANCY =           0.00






 

            AG WELLS      PERIOD    8   STEP  15
 AG WELL      1   LAYER   1   ROW     6   COL     4   RATE    -7.30688    
 AG WELL      2   LAYER   1   ROW     6   COL     5   RATE    -7.30688    
 AG WELL      3   LAYER   1   ROW     7   COL     4   RATE    -7.30688    
 AG WELL      4   LAYER   1   ROW     7   COL     5   RATE    -7.30688    
 AG WELL      5   LAYER   1   ROW     8   COL     4   RATE    -7.30688    
 AG WELL      6   LAYER   1   ROW     8   COL     5   RATE    -7.30688    
 
 

   DIVERSION SEGMENTS     PERIOD    8   STEP  15
 SEGMENT      9   RATE     50.8780    
 
 

        SW IRRIGATION     PERIOD    8   STEP  15
 SEGMENT      9   ROW     6   COL     4   RATE     8.47984    
 SEGMENT      9   ROW     6   COL     5   RATE     8.47984    
 SEGMENT      9   ROW     7   COL     4   RATE     8.47984    
 SEGMENT      9   ROW     7   COL     5   RATE     8.47984    
 SEGMENT      9   ROW     8   COL     4   RATE     8.47984    
 SEGMENT      9   ROW     8   COL     5   RATE     8.47984    
 
 

        GW IRRIGATION     PERIOD    8   STEP  15
 AG WELL      1   ROW     6   COL     4   RATE     7.30688    
 AG WELL      2   ROW     6   COL     5   RATE     7.30688    
 AG WELL      3   ROW     7   COL     4   RATE     7.30688    
 AG WELL      4   ROW     7   COL     5   RATE     7.30688    
 AG WELL      5   ROW     8   COL     4   RATE     7.30688    
 AG WELL      6   ROW     8   COL     5   RATE     7.30688    
 
1
  VOLUMETRIC BUDGET FOR AGRICULTURAL FIELDS AT  END OF TIME STEP   15, STRESS PERIOD   8
  ------------------------------------------------------------------------------

     CUMULATIVE VOLUMES      L**3       RATES FOR THIS TIME STEP      L**3/T
     ------------------                 ------------------------

           IN:                                      IN:
           ---                                      ---
               AG WELLS  =  1079628928.0000                 AG WELLS  =          43.8413
      DIVERSION SEGMENTS =   157610928.0000        DIVERSION SEGMENTS =          50.8780
       IRRIGATION PONDS  =           0.0000         IRRIGATION PONDS  =           0.0000
           GW IRRIGATION =           0.0000             GW IRRIGATION =           0.0000
           SW IRRIGATION =           0.0000             SW IRRIGATION =           0.0000
        SYSTEM LOSSES GW =           0.0000          SYSTEM LOSSES GW =           0.0000
        SYSTEM LOSSES SW =           0.0000          SYSTEM LOSSES SW =           0.0000

                TOTAL IN =  1237239808.0000                  TOTAL IN =          94.7193

          OUT:                                     OUT:
          ----                                     ----
               AG WELLS  =           0.0000                 AG WELLS  =           0.0000
      DIVERSION SEGMENTS =           0.0000        DIVERSION SEGMENTS =           0.0000
       IRRIGATION PONDS  =           0.0000         IRRIGATION PONDS  =           0.0000
           GW IRRIGATION =  1079628928.0000             GW IRRIGATION =          43.8413
           SW IRRIGATION =   157614064.0000             SW IRRIGATION =          50.8790
        SYSTEM LOSSES GW =           0.0000          SYSTEM LOSSES GW =           0.0000
        SYSTEM LOSSES SW =           0.0000          SYSTEM LOSSES SW =           0.0000

               TOTAL OUT =  1237243008.0000                 TOTAL OUT =          94.7203

                IN - OUT =       -3200.0000                  IN - OUT =      -1.0147E-03

     PERCENT DISCREPANCY =          -0.00         PERCENT DISCREPANCY =          -0.00



1
  VOLUMETRIC BUDGET FOR ENTIRE MODEL AT END OF TIME STEP   15, STRESS PERIOD   8
  ------------------------------------------------------------------------------

     CUMULATIVE VOLUMES      L**3       RATES FOR THIS TIME STEP      L**3/T
     ------------------                 ------------------------

           IN:                                      IN:
           ---                                      ---
             STORAGE     =  1274788736.0000               STORAGE     =          43.7679
       CONSTANT HEAD     =           0.0000         CONSTANT HEAD     =           0.0000
     HEAD DEP BOUNDS     =     4909129.0000       HEAD DEP BOUNDS     =           0.2858
      STREAM LEAKAGE     =   210259776.0000        STREAM LEAKAGE     =          12.0906
        UZF RECHARGE     =   376231040.0000          UZF RECHARGE     =          33.9400
               GW ET     =           0.0000                 GW ET     =           0.0000
     SURFACE LEAKAGE     =           0.0000       SURFACE LEAKAGE     =           0.0000
           AG WELLS      =           0.0000             AG WELLS      =           0.0000

                TOTAL IN =  1866188672.0000                  TOTAL IN =          90.0842

          OUT:                                     OUT:
          ----                                     ----
             STORAGE     =   596880512.0000               STORAGE     =          33.5787
       CONSTANT HEAD     =           0.0000         CONSTANT HEAD     =           0.0000
     HEAD DEP BOUNDS     =     5015040.0000       HEAD DEP BOUNDS     =           0.2910
      STREAM LEAKAGE     =   183460768.0000        STREAM LEAKAGE     =          12.3742
        UZF RECHARGE     =           0.0000          UZF RECHARGE     =           0.0000
               GW ET     =     1207612.8750                 GW ET     =           0.0000
     SURFACE LEAKAGE     =           0.0000       SURFACE LEAKAGE     =           0.0000
           AG WELLS      =  1079628928.0000             AG WELLS      =          43.8413

               TOTAL OUT =  1866192896.0000                 TOTAL OUT =          90.0852

                IN - OUT =       -4224.0000                  IN - OUT =      -1.0300E-03

     PERCENT DISCREPANCY =          -0.00         PERCENT DISCREPANCY =          -0.00






         TIME SUMMARY AT END OF TIME STEP   15 IN STRESS PERIOD    8
                    SECONDS     MINUTES      HOURS       DAYS        YEARS
                    -----------------------------------------------------------
   TIME STEP LENGTH  87667.      1461.1      24.352      1.0147     2.77799E-03
 STRESS PERIOD TIME 1.31500E+06  21917.      365.28      15.220     4.16698E-02
         TOTAL TIME 1.71814E+07 2.86357E+05  4772.6      198.86     0.54445    
1
 
 SOLVING FOR HEAD 
                                                   Max.-Head-Change                         Max.-Flux-Residual
  Residual-Control   Outer-Iter.   Inner-Iter.     Column Row Layer    Maximum-Head-Change  Column Row Layer    Maximum-Flux-Residual          L2-NORM 
          0                 1           2             5    7     1       0.1637372110E+01       5    7    1         0.8793587027E+02      0.1623766887E+03
          0                 2           2             5    8     1       0.5093541084E+00       5    8    1         0.2768833859E+02      0.3979957507E+02
          0                 3           2             5    8     1       0.1687601761E+00       5    8    1         0.9117014887E+01      0.1508326290E+02
          0                 4           2             4    6     1      -0.7386980884E-01       4    6    1        -0.4263633993E+01      0.8876065688E+01
          0                 5           2             4    7     1      -0.2154310595E-01       4    6    1        -0.1239437085E+01      0.2398840112E+01
          0                 6           2             4    7     1      -0.6319016814E-02       4    7    1        -0.3621731045E+00      0.6559697716E+00
          0                 7           2             4    7     1      -0.1847529952E-02       4    7    1        -0.1061554084E+00      0.1812463077E+00
          0                 8           2             4    7     1      -0.5387322656E-03       4    7    1        -0.3101854313E-01      0.5052311235E-01
          0                 9           2             4    7     1      -0.1567423853E-03       4    7    1        -0.9040288649E-02      0.1418612264E-01
          0                10           1             4    7     1      -0.4551855407E-04       4    7    1        -0.2629113024E-02      0.4006369693E-02

    ------------------------------------------------
       NWT REQUIRED           10 OUTER ITERATIONS 
       AND A TOTAL OF         19 INNER ITERATIONS.
    ------------------------------------------------

 NO OUTPUT CONTROL FOR STRESS PERIOD    8   TIME STEP   16
 
 SOLVING FOR HEAD 
                                                   Max.-Head-Change                         Max.-Flux-Residual
  Residual-Control   Outer-Iter.   Inner-Iter.     Column Row Layer    Maximum-Head-Change  Column Row Layer    Maximum-Flux-Residual          L2-NORM 
          0                 1           2             4    7     1       0.2223574530E+01       4    7    1         0.1188715929E+03      0.1531872278E+03
          0                 2           2             5    8     1      -0.1779954629E+01       5    8    1        -0.9858121727E+02      0.1935166662E+03
          0                 3           2             4    8     1      -0.7899844335E+00       4    8    1        -0.4382655601E+02      0.7171198070E+02
          0                 4           2             4    8     1      -0.4766917425E+00       4    8    1        -0.2653232424E+02      0.3386114609E+02
          0                 5           2             4    6     1      -0.2178321709E+00       4    6    1        -0.1218946369E+02      0.1229332965E+02
          0                 6           2             4    6     1      -0.1304969669E+00       4    6    1        -0.7308146048E+01      0.7317885703E+01
          0                 7           2             4    6     1      -0.7814493264E-01       4    6    1        -0.4377611210E+01      0.4379301379E+01
          0                 8           2             4    6     1      -0.4678731370E-01       4    6    1        -0.2621281745E+01      0.2621730615E+01
          0                 9           2             4    6     1      -0.2801073427E-01       4    6    1        -0.1569376233E+01      0.1569547146E+01
          0                10           2             4    6     1      -0.1676899076E-01       4    6    1        -0.9395365045E+00      0.9396189089E+00
                                                   Max.-Head-Change                         Max.-Flux-Residual
  Residual-Control   Outer-Iter.   Inner-Iter.     Column Row Layer    Maximum-Head-Change  Column Row Layer    Maximum-Flux-Residual          L2-NORM 
          0                11           2             4    6     1      -0.1003880912E-01       4    6    1        -0.5624553035E+00      0.5625001806E+00
          0                12           2             4    6     1      -0.6009703034E-02       4    6    1        -0.3367099415E+00      0.3367357638E+00
          0                13           2             4    6     1      -0.3597662689E-02       4    6    1        -0.2015671331E+00      0.2015823420E+00
          0                14           2             4    6     1      -0.2153698494E-02       4    6    1        -0.1206647034E+00      0.1206737478E+00
          0                15           2             4    6     1      -0.1289277961E-02       4    6    1        -0.7223336958E-01      0.7223876928E-01
          0                16           2             4    6     1      -0.7718012284E-03       4    6    1        -0.4324070045E-01      0.4324392931E-01
          0                17           2             4    6     1      -0.4620209240E-03       4    6    1        -0.2588480109E-01      0.2588673310E-01
          0                18           2             4    6     1      -0.2765763892E-03       4    6    1        -0.1549509429E-01      0.1549625061E-01
          0                19           2             4    6     1      -0.1655639736E-03       4    6    1        -0.9275576200E-02      0.9276268339E-02
          0                20           1             4    6     1      -0.9910917503E-04       4    6    1        -0.5552452536E-02      0.5552866845E-02

    ------------------------------------------------
       NWT REQUIRED           20 OUTER ITERATIONS 
       AND A TOTAL OF         39 INNER ITERATIONS.
    ------------------------------------------------

 NO OUTPUT CONTROL FOR STRESS PERIOD    8   TIME STEP   17
 
 SOLVING FOR HEAD 
                                                   Max.-Head-Change                         Max.-Flux-Residual
  Residual-Control   Outer-Iter.   Inner-Iter.     Column Row Layer    Maximum-Head-Change  Column Row Layer    Maximum-Flux-Residual          L2-NORM 
          0                 1           2             4    6     1       0.1422360621E+01       4    6    1         0.7651564755E+02      0.1433453345E+03
          0                 2           2             5    8     1       0.3989476594E+00       5    8    1         0.2160947012E+02      0.3796640295E+02
          0                 3           2             5    8     1       0.1190112682E+00       5    8    1         0.6424267479E+01      0.1233353458E+02
          0                 4           2             5    8     1       0.2662935209E-01       5    8    1         0.1436515862E+01      0.2808360011E+01
          0                 5           2             5    8     1       0.5964566788E-02       5    8    1         0.3215252609E+00      0.6403324247E+00
          0                 6           2             5    8     1       0.1337314019E-02       5    8    1         0.7204011129E-01      0.1461486725E+00
          0                 7           2             5    8     1       0.3001345343E-03       5    8    1         0.1615700098E-01      0.3338659959E-01
          0                 8           1             5    8     1       0.6749552978E-04       5    8    1         0.3627581829E-02      0.7633457317E-02

    ------------------------------------------------
       NWT REQUIRED            8 OUTER ITERATIONS 
       AND A TOTAL OF         15 INNER ITERATIONS.
    ------------------------------------------------

 NO OUTPUT CONTROL FOR STRESS PERIOD    8   TIME STEP   18
 
 SOLVING FOR HEAD 
                                                   Max.-Head-Change                         Max.-Flux-Residual
  Residual-Control   Outer-Iter.   Inner-Iter.     Column Row Layer    Maximum-Head-Change  Column Row Layer    Maximum-Flux-Residual          L2-NORM 
          0                 1           2             4    7     1       0.1938180267E+01       4    7    1         0.1034315310E+03      0.1381264237E+03
          0                 2           2             4    6     1       0.5828378539E+00       4    6    1         0.3170077422E+02      0.4125156680E+02
          0                 3           2             4    8     1       0.2001333262E+00       4    8    1         0.1080486378E+02      0.1477022246E+02
          0                 4           2             4    8     1       0.1184251699E+00       4    8    1         0.6417546067E+01      0.7270304057E+01
          0                 5           2             4    8     1       0.6999658012E-01       4    8    1         0.3795412421E+01      0.4143189075E+01
          0                 6           2             4    8     1       0.4135358239E-01       4    8    1         0.2243081702E+01      0.2425888072E+01
          0                 7           2             4    8     1       0.2442699510E-01       4    8    1         0.1325126892E+01      0.1426238245E+01
          0                 8           2             4    8     1       0.1442759247E-01       4    8    1         0.7827182982E+00      0.8391462690E+00
          0                 9           2             4    8     1       0.8521243081E-02       4    8    1         0.4623017926E+00      0.4938488432E+00
          0                10           2             4    8     1       0.5032741338E-02       4    8    1         0.2730442494E+00      0.2906899133E+00
                                                   Max.-Head-Change                         Max.-Flux-Residual
  Residual-Control   Outer-Iter.   Inner-Iter.     Column Row Layer    Maximum-Head-Change  Column Row Layer    Maximum-Flux-Residual          L2-NORM 
          0                11           2             4    8     1       0.2972362415E-02       4    8    1         0.1612626769E+00      0.1711351096E+00
          0                12           2             4    8     1       0.1755478895E-02       4    8    1         0.9524243801E-01      0.1007669198E+00
          0                13           2             4    8     1       0.1036780191E-02       4    8    1         0.5625018657E-01      0.5934216058E-01
          0                14           2             4    8     1       0.6123154952E-03       4    8    1         0.3322115352E-01      0.3495200402E-01
          0                15           2             4    8     1       0.3616274881E-03       4    8    1         0.1962017849E-01      0.2058927669E-01
          0                16           2             4    8     1       0.2135725076E-03       4    8    1         0.1158747581E-01      0.1213018435E-01
          0                17           2             4    8     1       0.1261325174E-03       4    8    1         0.6843408470E-02      0.7147400970E-02
          0                18           1             4    8     1       0.7449145530E-04       4    8    1         0.4041605318E-02      0.4211924445E-02

    ------------------------------------------------
       NWT REQUIRED           18 OUTER ITERATIONS 
       AND A TOTAL OF         35 INNER ITERATIONS.
    ------------------------------------------------

 NO OUTPUT CONTROL FOR STRESS PERIOD    8   TIME STEP   19
 
 SOLVING FOR HEAD 
                                                   Max.-Head-Change                         Max.-Flux-Residual
  Residual-Control   Outer-Iter.   Inner-Iter.     Column Row Layer    Maximum-Head-Change  Column Row Layer    Maximum-Flux-Residual          L2-NORM 
          0                 1           2             5    6     1       0.1634525576E+01       5    6    1         0.8925399733E+02      0.1435489917E+03
          0                 2           2             4    7     1       0.4410159546E+00       4    7    1         0.2395852271E+02      0.3247144247E+02
          0                 3           2             4    7     1       0.3251744667E+00       4    7    1         0.1753615838E+02      0.2090650460E+02
          0                 4           2             4    7     1       0.8430833508E-01       4    6    1        -0.4789912287E+01      0.1105916618E+02
          0                 5           2             4    7     1       0.4851683010E-01       4    7    1         0.2693430629E+01      0.3758283163E+01
          0                 6           2             4    7     1       0.2826083132E-01       4    7    1         0.1552059890E+01      0.1696812308E+01
          0                 7           2             4    7     1       0.1655631481E-01       4    7    1         0.9046148235E+00      0.9213273483E+00
          0                 8           2             4    7     1       0.9725325743E-02       4    7    1         0.5301015828E+00      0.5317021618E+00
          0                 9           1             4    7     1       0.5719870161E-02       4    7    1         0.3114233074E+00      0.3115264452E+00
          0                10           1             4    7     1       0.3366037984E-02       4    7    1         0.1831680397E+00      0.1831828069E+00
                                                   Max.-Head-Change                         Max.-Flux-Residual
  Residual-Control   Outer-Iter.   Inner-Iter.     Column Row Layer    Maximum-Head-Change  Column Row Layer    Maximum-Flux-Residual          L2-NORM 
          0                11           1             4    7     1       0.1981386451E-02       4    7    1         0.1077910384E+00      0.1078126341E+00
          0                12           1             4    7     1       0.1166481337E-02       4    7    1         0.6345010578E-01      0.6347049727E-01
          0                13           1             4    7     1       0.6867769083E-03       4    7    1         0.3735429979E-01      0.3736915826E-01
          0                14           1             4    7     1       0.4043600841E-03       4    7    1         0.2199268529E-01      0.2200236912E-01
          0                15           1             4    7     1       0.2380829373E-03       4    7    1         0.1294883558E-01      0.1295482946E-01
          0                16           1             4    7     1       0.1401819182E-03       4    7    1         0.7624136007E-02      0.7627754396E-02
          0                17           1             4    7     1       0.8253869746E-04       4    7    1         0.4489048764E-02      0.4491206236E-02

    ------------------------------------------------
       NWT REQUIRED           17 OUTER ITERATIONS 
       AND A TOTAL OF         25 INNER ITERATIONS.
    ------------------------------------------------

 NO OUTPUT CONTROL FOR STRESS PERIOD    8   TIME STEP   20
 
 SOLVING FOR HEAD 
                                                   Max.-Head-Change                         Max.-Flux-Residual
  Residual-Control   Outer-Iter.   Inner-Iter.     Column Row Layer    Maximum-Head-Change  Column Row Layer    Maximum-Flux-Residual          L2-NORM 
          0                 1           2             4    6     1       0.1824188075E+01       4    6    1         0.9844906798E+02      0.1547460193E+03
          0                 2           2             5    7     1       0.6253405935E+00       5    7    1         0.3428255693E+02      0.4827370059E+02
          0                 3           2             5    6     1       0.2799146167E+00       5    6    1         0.1515146070E+02      0.2238311637E+02
          0                 4           2             5    8     1      -0.8983046365E-01       5    8    1        -0.5153303891E+01      0.9260279004E+01
          0                 5           2             5    6     1       0.4091220742E-01       5    6    1         0.2282984535E+01      0.2811436730E+01
          0                 6           2             5    6     1       0.2352300895E-01       5    6    1         0.1305228775E+01      0.1363504450E+01
          0                 7           2             5    6     1       0.1356766768E-01       5    6    1         0.7509776726E+00      0.7567159168E+00
          0                 8           2             5    6     1       0.7836196556E-02       5    6    1         0.4332820332E+00      0.4337892590E+00
          0                 9           2             5    6     1       0.4528509751E-02       5    6    1         0.2502778401E+00      0.2503343887E+00
          0                10           2             5    6     1       0.2617647257E-02       5    6    1         0.1446394174E+00      0.1446651710E+00
                                                   Max.-Head-Change                         Max.-Flux-Residual
  Residual-Control   Outer-Iter.   Inner-Iter.     Column Row Layer    Maximum-Head-Change  Column Row Layer    Maximum-Flux-Residual          L2-NORM 
          0                11           2             5    6     1       0.1513267716E-02       5    6    1         0.8360824173E-01      0.8362767265E-01
          0                12           2             5    6     1       0.8748687404E-03       5    6    1         0.4833445246E-01      0.4834762346E-01
          0                13           2             5    6     1       0.5058017978E-03       5    6    1         0.2794379321E-01      0.2795200592E-01
          0                14           2             5    6     1       0.2924304429E-03       5    6    1         0.1615561485E-01      0.1616053144E-01
          0                15           2             5    6     1       0.1690701634E-03       5    6    1         0.9340411607E-02      0.9343300183E-02
          0                16           1             5    6     1       0.9774900822E-04       5    6    1         0.5400208803E-02      0.5401891505E-02

    ------------------------------------------------
       NWT REQUIRED           16 OUTER ITERATIONS 
       AND A TOTAL OF         31 INNER ITERATIONS.
    ------------------------------------------------

 NO OUTPUT CONTROL FOR STRESS PERIOD    8   TIME STEP   21
 
 SOLVING FOR HEAD 
                                                   Max.-Head-Change                         Max.-Flux-Residual
  Residual-Control   Outer-Iter.   Inner-Iter.     Column Row Layer    Maximum-Head-Change  Column Row Layer    Maximum-Flux-Residual          L2-NORM 
          0                 1           2             4    7     1       0.1750327444E+01       4    7    1         0.9472713154E+02      0.1057763794E+03
          0                 2           2             4    8     1      -0.1888216936E+01       4    8    1        -0.1001039727E+03      0.2237473240E+03
          0                 3           2             4    6     1      -0.8186036620E+00       4    6    1        -0.4544009113E+02      0.5361179374E+02
          0                 4           2             4    6     1      -0.3397643239E+00       4    6    1        -0.1891704434E+02      0.2155920264E+02
          0                 5           2             4    7     1      -0.1126927419E+00       4    7    1        -0.6324772373E+01      0.6462217127E+01
          0                 6           2             4    7     1      -0.6757149310E-01       4    7    1        -0.3779963366E+01      0.3780392766E+01
          0                 7           2             4    7     1      -0.4051625272E-01       4    7    1        -0.2266928204E+01      0.2266930247E+01
          0                 8           2             4    7     1      -0.2429363490E-01       4    7    1        -0.1359235075E+01      0.1359236808E+01
          0                 9           2             4    7     1      -0.1456642901E-01       4    7    1        -0.8149876743E+00      0.8149887046E+00
          0                10           2             4    7     1      -0.8733956589E-02       4    7    1        -0.4886577971E+00      0.4886584149E+00
                                                   Max.-Head-Change                         Max.-Flux-Residual
  Residual-Control   Outer-Iter.   Inner-Iter.     Column Row Layer    Maximum-Head-Change  Column Row Layer    Maximum-Flux-Residual          L2-NORM 
          0                11           1             4    7     1      -0.5236803509E-02       4    7    1        -0.2929921448E+00      0.2929925153E+00
          0                12           1             4    7     1      -0.3139921825E-02       4    7    1        -0.1756727689E+00      0.1756729910E+00
          0                13           1             4    7     1      -0.1882646111E-02       4    7    1        -0.1053295496E+00      0.1053296828E+00
          0                14           1             4    7     1      -0.1128796992E-02       4    7    1        -0.6315290178E-01      0.6315298163E-01
          0                15           1             4    7     1      -0.6767999036E-03       4    7    1        -0.3786462770E-01      0.3786467558E-01
          0                16           1             4    7     1      -0.4057906393E-03       4    7    1        -0.2270237880E-01      0.2270240750E-01
          0                17           1             4    7     1      -0.2432994080E-03       4    7    1        -0.1361151083E-01      0.1361152804E-01
          0                18           1             4    7     1      -0.1458738244E-03       4    7    1        -0.8160910052E-02      0.8160920386E-02
          0                19           1             4    7     1      -0.8746030303E-04       4    7    1        -0.4892920286E-02      0.4892926491E-02

    ------------------------------------------------
       NWT REQUIRED           19 OUTER ITERATIONS 
       AND A TOTAL OF         29 INNER ITERATIONS.
    ------------------------------------------------

 NO OUTPUT CONTROL FOR STRESS PERIOD    8   TIME STEP   22
 
 SOLVING FOR HEAD 
                                                   Max.-Head-Change                         Max.-Flux-Residual
  Residual-Control   Outer-Iter.   Inner-Iter.     Column Row Layer    Maximum-Head-Change  Column Row Layer    Maximum-Flux-Residual          L2-NORM 
          0                 1           2             4    6     1       0.1260093584E+01       4    6    1         0.6839299776E+02      0.7227499323E+02
          0                 2           2             4    6     1       0.2489253129E+00       4    6    1         0.1355362142E+02      0.1440255691E+02
          0                 3           2             4    6     1       0.8567743614E-01       4    6    1         0.4609372821E+01      0.6282253584E+01
          0                 4           2             4    6     1       0.1908628048E-01       4    6    1         0.1034768794E+01      0.1195671212E+01
          0                 5           2             4    6     1       0.4253211368E-02       4    6    1         0.2300169951E+00      0.2647378238E+00
          0                 6           2             4    6     1       0.9480857678E-03       4    6    1         0.5127941255E-01      0.5939251436E-01
          0                 7           2             4    6     1       0.2114025803E-03       4    6    1         0.1143160197E-01      0.1332763494E-01
          0                 8           1             4    6     1       0.4715220645E-04       4    6    1         0.2549240276E-02      0.2991446108E-02

    ------------------------------------------------
       NWT REQUIRED            8 OUTER ITERATIONS 
       AND A TOTAL OF         15 INNER ITERATIONS.
    ------------------------------------------------

 NO OUTPUT CONTROL FOR STRESS PERIOD    8   TIME STEP   23
 
 SOLVING FOR HEAD 
                                                   Max.-Head-Change                         Max.-Flux-Residual
  Residual-Control   Outer-Iter.   Inner-Iter.     Column Row Layer    Maximum-Head-Change  Column Row Layer    Maximum-Flux-Residual          L2-NORM 
          0                 1           2             4    7     1       0.1258069181E+00       4    7    1         0.6808027533E+01      0.1089994776E+02
          0                 2           2             5    7     1      -0.2082041715E+00       5    8    1        -0.1137137581E+02      0.2700817875E+02
          0                 3           2             4    7     1      -0.3306864226E-01       4    7    1        -0.1870101507E+01      0.2468901194E+01
          0                 4           2             4    7     1       0.2252204344E-02       4    7    1         0.1302911922E+00      0.1470277292E+00
          0                 5           1             4    7     1      -0.8963851325E-04       4    7    1        -0.5304915746E-02      0.5423689433E-02

    ------------------------------------------------
       NWT REQUIRED            5 OUTER ITERATIONS 
       AND A TOTAL OF          9 INNER ITERATIONS.
    ------------------------------------------------

 NO OUTPUT CONTROL FOR STRESS PERIOD    8   TIME STEP   24
 
 SOLVING FOR HEAD 
                                                   Max.-Head-Change                         Max.-Flux-Residual
  Residual-Control   Outer-Iter.   Inner-Iter.     Column Row Layer    Maximum-Head-Change  Column Row Layer    Maximum-Flux-Residual          L2-NORM 
          0                 1           2             5    8     1       0.1428825843E+01       5    8    1         0.7880182585E+02      0.7944520333E+02
          0                 2           2             5    8     1       0.2154436212E+00       5    8    1         0.1204276982E+02      0.1656537150E+02
          0                 3           2             5    8     1       0.1103211895E+00       5    8    1         0.5969389901E+01      0.9965242042E+01
          0                 4           2             4    6     1      -0.1006120158E+00       4    6    1        -0.5793513954E+01      0.1340694582E+02
          0                 5           2             5    8     1      -0.1886978923E-01       5    8    1        -0.1071826637E+01      0.1184220161E+01
          0                 6           1             5    8     1      -0.4492544152E-02       5    8    1        -0.2547126817E+00      0.2547899134E+00
          0                 7           1             5    8     1      -0.1069553684E-02       5    8    1        -0.6062951541E-01      0.6063281588E-01
          0                 8           1             5    8     1      -0.2546240173E-03       5    8    1        -0.1443323998E-01      0.1443422193E-01
          0                 9           1             5    8     1      -0.6061540952E-04       5    8    1        -0.3435906221E-02      0.3436149480E-02

    ------------------------------------------------
       NWT REQUIRED            9 OUTER ITERATIONS 
       AND A TOTAL OF         14 INNER ITERATIONS.
    ------------------------------------------------

 NO OUTPUT CONTROL FOR STRESS PERIOD    8   TIME STEP   25
 
 SOLVING FOR HEAD 
                                                   Max.-Head-Change                         Max.-Flux-Residual
  Residual-Control   Outer-Iter.   Inner-Iter.     Column Row Layer    Maximum-Head-Change  Column Row Layer    Maximum-Flux-Residual          L2-NORM 
          0                 1           2             4    8     1       0.1348477424E+01       4    8    1         0.7311561488E+02      0.9911698470E+02
          0                 2           2             5    7     1       0.4830265920E+00       5    7    1         0.2656679823E+02      0.3716746397E+02
          0                 3           2             5    7     1       0.2685432860E+00       5    7    1         0.1454184279E+02      0.2122564587E+02
          0                 4           2             5    8     1      -0.8968106079E-01       5    8    1        -0.5151595240E+01      0.9552704802E+01
          0                 5           2             5    6     1       0.2669151135E-01       5    6    1         0.1478984009E+01      0.2127566868E+01
          0                 6           2             5    6     1       0.1541754590E-01       5    6    1         0.8522538111E+00      0.8833747671E+00
          0                 7           2             5    6     1       0.8919155153E-02       5    6    1         0.4924565794E+00      0.4954570616E+00
          0                 8           2             5    6     1       0.5163048157E-02       5    6    1         0.2849306870E+00      0.2852089566E+00
          0                 9           2             5    6     1       0.2989511363E-02       5    6    1         0.1649469714E+00      0.1649792038E+00
          0                10           2             5    6     1       0.1731172101E-02       5    6    1         0.9550910180E-01      0.9552003689E-01
                                                   Max.-Head-Change                         Max.-Flux-Residual
  Residual-Control   Outer-Iter.   Inner-Iter.     Column Row Layer    Maximum-Head-Change  Column Row Layer    Maximum-Flux-Residual          L2-NORM 
          0                11           2             5    6     1       0.1002537870E-02       5    6    1         0.5530796203E-01      0.5531497984E-01
          0                12           2             5    6     1       0.5805912218E-03       5    6    1         0.3202945011E-01      0.3203397284E-01
          0                13           2             5    6     1       0.3362360019E-03       5    6    1         0.1854896751E-01      0.1855173472E-01
          0                14           2             5    6     1       0.1947241291E-03       5    6    1         0.1074221279E-01      0.1074385663E-01
          0                15           2             5    6     1       0.1127706629E-03       5    6    1         0.6221132209E-02      0.6222095144E-02
          0                16           1             5    6     1       0.6530897287E-04       5    6    1         0.3602847269E-02      0.3603407767E-02

    ------------------------------------------------
       NWT REQUIRED           16 OUTER ITERATIONS 
       AND A TOTAL OF         31 INNER ITERATIONS.
    ------------------------------------------------

 NO OUTPUT CONTROL FOR STRESS PERIOD    8   TIME STEP   26
 
 SOLVING FOR HEAD 
                                                   Max.-Head-Change                         Max.-Flux-Residual
  Residual-Control   Outer-Iter.   Inner-Iter.     Column Row Layer    Maximum-Head-Change  Column Row Layer    Maximum-Flux-Residual          L2-NORM 
          0                 1           2             4    7     1       0.2116438923E+01       4    7    1         0.1145071300E+03      0.1295827241E+03
          0                 2           2             4    8     1      -0.1885486471E+01       4    8    1        -0.9994076715E+02      0.2190422715E+03
          0                 3           2             4    6     1      -0.7595658401E+00       4    6    1        -0.4197687788E+02      0.5345668193E+02
          0                 4           2             4    6     1      -0.4579787129E+00       4    6    1        -0.2552219533E+02      0.2654238223E+02
          0                 5           2             4    6     1      -0.1914442470E+00       4    6    1        -0.1069172783E+02      0.1085892812E+02
          0                 6           2             4    6     1       0.1293833439E-01       4    6    1         0.7486568110E+00      0.8263503678E+00
          0                 7           2             4    7     1      -0.1406928000E-02       4    7    1        -0.7828163411E-01      0.8421198466E-01
          0                 8           1             4    7     1      -0.3407029925E-03       4    7    1        -0.1906518900E-01      0.1906839944E-01
          0                 9           1             4    7     1      -0.8250253533E-04       4    7    1        -0.4615309436E-02      0.4615420620E-02

    ------------------------------------------------
       NWT REQUIRED            9 OUTER ITERATIONS 
       AND A TOTAL OF         16 INNER ITERATIONS.
    ------------------------------------------------

 NO OUTPUT CONTROL FOR STRESS PERIOD    8   TIME STEP   27
 
 SOLVING FOR HEAD 
                                                   Max.-Head-Change                         Max.-Flux-Residual
  Residual-Control   Outer-Iter.   Inner-Iter.     Column Row Layer    Maximum-Head-Change  Column Row Layer    Maximum-Flux-Residual          L2-NORM 
          0                 1           2             4    6     1       0.1573865056E+01       4    6    1         0.8572990902E+02      0.8607223767E+02
          0                 2           2             4    6     1       0.3167421201E+00       4    6    1         0.1729815417E+02      0.1761973344E+02
          0                 3           2             4    6     1       0.1002275968E+00       4    6    1         0.5419899937E+01      0.6572448575E+01
          0                 4           2             4    6     1       0.2234829500E-01       4    6    1         0.1205974575E+01      0.1361310331E+01
          0                 5           2             4    6     1       0.4997546725E-02       4    6    1         0.2690059474E+00      0.3182792784E+00
          0                 6           2             4    6     1       0.1121262124E-02       4    6    1         0.6018353725E-01      0.7602627084E-01
          0                 7           2             4    6     1       0.2525205792E-03       4    6    1         0.1350992115E-01      0.1846345192E-01
          0                 8           1             4    6     1       0.5711394960E-04       4    6    1         0.3044393826E-02      0.4555170991E-02

    ------------------------------------------------
       NWT REQUIRED            8 OUTER ITERATIONS 
       AND A TOTAL OF         15 INNER ITERATIONS.
    ------------------------------------------------

 NO OUTPUT CONTROL FOR STRESS PERIOD    8   TIME STEP   28
 
 SOLVING FOR HEAD 
                                                   Max.-Head-Change                         Max.-Flux-Residual
  Residual-Control   Outer-Iter.   Inner-Iter.     Column Row Layer    Maximum-Head-Change  Column Row Layer    Maximum-Flux-Residual          L2-NORM 
          0                 1           2             4    7     1       0.9757741789E-01       4    7    1         0.5251069851E+01      0.9355292531E+01
          0                 2           2             4    8     1      -0.2093876432E+00       5    8    1        -0.1146898081E+02      0.2696204730E+02
          0                 3           2             4    7     1      -0.2382854972E-01       4    7    1        -0.1353357957E+01      0.2038083223E+01
          0                 4           2             4    7     1       0.1622894758E-02       4    7    1         0.9411443847E-01      0.1185062117E+00
          0                 5           1             4    7     1      -0.6459175934E-04       4    7    1        -0.3824962917E-02      0.4279403652E-02

    ------------------------------------------------
       NWT REQUIRED            5 OUTER ITERATIONS 
       AND A TOTAL OF          9 INNER ITERATIONS.
    ------------------------------------------------

 NO OUTPUT CONTROL FOR STRESS PERIOD    8   TIME STEP   29
 
 SOLVING FOR HEAD 
                                                   Max.-Head-Change                         Max.-Flux-Residual
  Residual-Control   Outer-Iter.   Inner-Iter.     Column Row Layer    Maximum-Head-Change  Column Row Layer    Maximum-Flux-Residual          L2-NORM 
          0                 1           2             5    8     1       0.1466781193E+01       5    8    1         0.8094189248E+02      0.8139583169E+02
          0                 2           2             5    8     1       0.2241504130E+00       5    8    1         0.1252366784E+02      0.1725212631E+02
          0                 3           2             5    8     1       0.1122189488E+00       5    8    1         0.6073457843E+01      0.1032305112E+02
          0                 4           2             4    7     1      -0.1019647876E+00       5    6    1        -0.5793841230E+01      0.1363876324E+02
          0                 5           2             5    8     1      -0.1877264070E-01       5    8    1        -0.1066506430E+01      0.1078575577E+01
          0                 6           1             5    8     1      -0.4469645650E-02       5    8    1        -0.2534080006E+00      0.2534155367E+00
          0                 7           1             5    8     1      -0.1064157097E-02       5    8    1        -0.6032135251E-01      0.6032447907E-01
          0                 8           1             5    8     1      -0.2533523546E-03       5    8    1        -0.1436059463E-01      0.1436156640E-01
          0                 9           1             5    8     1      -0.6031579320E-04       5    8    1        -0.3418787797E-02      0.3419029522E-02

    ------------------------------------------------
       NWT REQUIRED            9 OUTER ITERATIONS 
       AND A TOTAL OF         14 INNER ITERATIONS.
    ------------------------------------------------

 NO OUTPUT CONTROL FOR STRESS PERIOD    8   TIME STEP   30



 STREAM LISTING     PERIOD      8   STEP       30

 LAYER ROW COL. STREAM  RCH.  FLOW INTO     FLOW TO   FLOW OUT OF   OVRLND.     DIRECT     STREAM       STREAM     STREAM     STREAM   STREAMBED  STREAMBED
                SEG.NO.  NO.  STRM. RCH.    AQUIFER    STRM. RCH.    RUNOFF     PRECIP       ET          HEAD       DEPTH      WIDTH   CONDCTNC.   GRADIENT

   1    1    1     1     1    5.6250E+01  3.5874E-01   5.5891E+01  0.000E+00  0.000E+00  0.000E+00  1.09453E+03  1.479E+00  1.780E+01  8.010E-02  1.493E+00
   1    2    2     1     2    5.5891E+01  5.5550E-01   5.5335E+01  0.000E+00  0.000E+00  0.000E+00  1.08953E+03  1.473E+00  1.774E+01  1.242E-01  1.491E+00
   1    3    3     1     3    5.5335E+01  4.7368E-01   5.4862E+01  0.000E+00  0.000E+00  0.000E+00  1.08389E+03  1.467E+00  1.767E+01  1.060E-01  1.489E+00
   1    3    4     1     4    5.4862E+01  4.3613E-01   5.4426E+01  0.000E+00  0.000E+00  0.000E+00  1.07887E+03  1.461E+00  1.762E+01  9.777E-02  1.487E+00
   1    4    5     2     1    5.2426E+01  3.8056E-01   5.2045E+01  0.000E+00  0.000E+00  0.000E+00  1.07381E+03  1.879E+00  1.200E+01  7.800E-02  1.626E+00
   1    5    6     2     2    5.2045E+01  2.9230E-01   5.1753E+01  0.000E+00  0.000E+00  0.000E+00  1.06838E+03  1.872E+00  1.200E+01  6.000E-02  1.624E+00
   1    6    6     2     3    5.1753E+01  2.9192E-01   5.1461E+01  0.000E+00  0.000E+00  0.000E+00  1.06366E+03  1.865E+00  1.200E+01  6.000E-02  1.622E+00
   1    7    6     2     4    5.1461E+01  2.9154E-01   5.1169E+01  0.000E+00  0.000E+00  0.000E+00  1.05893E+03  1.859E+00  1.200E+01  6.000E-02  1.620E+00
   1    8    6     2     5    5.1169E+01  2.9116E-01   5.0878E+01  0.000E+00  0.000E+00  0.000E+00  1.05421E+03  1.853E+00  1.200E+01  6.000E-02  1.618E+00
   1    3    5     3     1    2.0000E+00  2.8252E-01   1.7175E+00  0.000E+00  0.000E+00  0.000E+00  1.07555E+03  1.909E+00  9.636E+00  7.227E-02  1.955E+00
   1    3    6     3     2    1.7175E+00  2.4905E-01   1.4684E+00  0.000E+00  0.000E+00  0.000E+00  1.07264E+03  1.727E+00  8.909E+00  6.682E-02  1.864E+00
   1    3    7     3     3    1.4684E+00  1.9718E-01   1.2712E+00  0.000E+00  0.000E+00  0.000E+00  1.06987E+03  1.555E+00  8.218E+00  5.547E-02  1.777E+00
   1    4    8     3     4    1.2712E+00  2.2567E-01   1.0456E+00  0.000E+00  0.000E+00  0.000E+00  1.06682E+03  1.364E+00  7.455E+00  6.709E-02  1.682E+00
   1    5    8     3     5    1.0456E+00  1.5790E-01   8.8768E-01  0.000E+00  0.000E+00  0.000E+00  1.06362E+03  1.164E+00  6.655E+00  4.991E-02  1.582E+00
   1    6    8     3     6    8.8768E-01  5.5980E-02   8.3170E-01  0.000E+00  0.000E+00  0.000E+00  1.06158E+03  1.036E+00  6.145E+00  1.844E-02  1.518E+00
   1    5   10     4     1    1.0000E+01  9.0919E-02   9.9091E+00  0.000E+00  0.000E+00  0.000E+00  1.07836E+03  6.368E-01  1.000E+01  2.500E-02  1.212E+00
   1    5    9     4     2    9.9091E+00  1.8158E-01   9.7275E+00  0.000E+00  0.000E+00  0.000E+00  1.07154E+03  6.315E-01  1.000E+01  5.000E-02  1.211E+00
   1    6    8     4     3    9.7275E+00  1.2689E-01   9.6006E+00  0.000E+00  0.000E+00  0.000E+00  1.06381E+03  6.256E-01  1.000E+01  3.500E-02  1.209E+00
   1    6    8     5     1    1.0432E+01  2.2686E-01   1.0205E+01  0.000E+00  0.000E+00  0.000E+00  1.05868E+03  6.790E-01  1.542E+01  6.166E-02  1.226E+00
   1    7    7     5     2    1.0205E+01  2.7894E-01   9.9265E+00  0.000E+00  0.000E+00  0.000E+00  1.05417E+03  6.732E-01  1.519E+01  7.594E-02  1.224E+00
   1    8    7     5     3    9.9265E+00  1.9221E-01   9.7343E+00  0.000E+00  0.000E+00  0.000E+00  1.04992E+03  6.676E-01  1.497E+01  5.241E-02  1.223E+00
   1    8    6     5     4    9.7343E+00  1.3577E-01   9.5985E+00  0.000E+00  0.000E+00  0.000E+00  1.04691E+03  6.637E-01  1.482E+01  3.706E-02  1.221E+00
   1    9    6     6     1    9.5985E+00  2.2097E-01   9.3776E+00  0.000E+00  0.000E+00  0.000E+00  1.04341E+03  6.828E-01  1.200E+01  6.000E-02  1.228E+00
   1   10    7     6     2    9.3776E+00  2.2039E-01   9.1572E+00  0.000E+00  0.000E+00  0.000E+00  1.03885E+03  6.732E-01  1.200E+01  6.000E-02  1.224E+00
   1   11    7     6     3    9.1572E+00  2.1981E-01   8.9374E+00  0.000E+00  0.000E+00  0.000E+00  1.03430E+03  6.636E-01  1.200E+01  6.000E-02  1.221E+00
   1   12    7     6     4    8.9374E+00  2.1923E-01   8.7181E+00  0.000E+00  0.000E+00  0.000E+00  1.02974E+03  6.539E-01  1.200E+01  6.000E-02  1.218E+00
   1   13    7     6     5    8.7181E+00 -1.3191E-01   8.8500E+00  0.000E+00  0.000E+00  0.000E+00  1.02656E+03  6.519E-01  1.200E+01  2.400E-01 -1.832E-01
   1   14    9     7     1    1.5000E+02  1.3359E+00   1.4866E+02  0.000E+00  0.000E+00  0.000E+00  1.03987E+03  2.288E+00  5.529E+01  5.593E-01  7.962E-01
   1   13    8     7     2    1.4866E+02  1.8213E+00   1.4684E+02  0.000E+00  0.000E+00  0.000E+00  1.03478E+03  2.279E+00  5.526E+01  6.148E-01  9.875E-01
   1   13    7     7     3    1.4684E+02  1.4405E+00   1.4540E+02  0.000E+00  0.000E+00  0.000E+00  1.02969E+03  2.271E+00  5.522E+01  5.585E-01  8.598E-01
   1   13    6     8     1    1.5425E+02  7.9751E-01   1.5345E+02  0.000E+00  0.000E+00  0.000E+00  1.02472E+03  2.844E+00  4.123E+01  4.202E-01  6.327E-01
   1   13    5     8     2    1.5345E+02  7.9807E-02   1.5338E+02  0.000E+00  0.000E+00  0.000E+00  1.01847E+03  2.841E+00  4.119E+01  4.197E-01  6.338E-02
   1   13    4     8     3    1.5338E+02 -2.8246E+00   1.5620E+02  0.000E+00  0.000E+00  0.000E+00  1.01223E+03  2.850E+00  4.133E+01  4.211E+00 -2.236E-01
   1   13    3     8     4    1.5620E+02 -3.9305E+00   1.6013E+02  0.000E+00  0.000E+00  0.000E+00  1.00600E+03  2.873E+00  4.166E+01  4.246E+00 -3.086E-01
   1   13    2     8     5    1.6013E+02 -2.8169E+00   1.6295E+02  0.000E+00  0.000E+00  0.000E+00  9.99771E+02  2.896E+00  4.200E+01  4.279E+00 -2.194E-01
   1   13    1     8     6    1.6295E+02 -2.1496E+00   1.6510E+02  0.000E+00  0.000E+00  0.000E+00  9.94788E+02  2.913E+00  4.224E+01  2.582E+00 -2.775E-01
   1    8    6     9     1    5.0878E+01  0.0000E+00   5.0878E+01  0.000E+00  0.000E+00  0.000E+00  1.08476E+03  6.014E+00  4.000E+00  0.000E+00  3.005E+00
   1    8    5     9     2    5.0878E+01  0.0000E+00   5.0878E+01  0.000E+00  0.000E+00  0.000E+00  1.08426E+03  6.014E+00  4.000E+00  0.000E+00  3.005E+00





UNSATURATED ZONE PACKAGE VOLUMETRIC BUDGET FOR  TIME STEP    30 STRESS PERIOD    8
  ------------------------------------------------------------------------------



     CUMULATIVE VOLUMES      L**3       RATES FOR THIS TIME STEP      L**3/T
     ------------------                 ------------------------

           IN:                                      IN:
           ---                                      ---
        INFILTRATION =  1510402213.8254          INFILTRATION =          95.5678

          OUT:                                     OUT:
          ----                                     ----
              UZF ET =   262218535.7913                UZF ET =          60.8175
        UZF RECHARGE =   673895821.2227          UZF RECHARGE =         108.3020

            IN - OUT =   574287856.8115              IN - OUT =         -73.5517

          STORAGE:                                 STORAGE:
          --------                                 --------
      STORAGE CHANGE =   574743563.6612        STORAGE CHANGE =         -73.5517

 PERCENT DISCREPANCY IS DIFFERENCE BETWEEN IN-OUT MINUS CHANGE IN STORAGE
 DIVIDED BY THE AVERAGE OF IN AND OUT TIMES 100

 PERCENT DISCREPANCY =          -0.01     PERCENT DISCREPANCY =           0.00






1
  VOLUMETRIC BUDGET FOR AGRICULTURAL FIELDS AT  END OF TIME STEP   30, STRESS PERIOD   8
  ------------------------------------------------------------------------------

     CUMULATIVE VOLUMES      L**3       RATES FOR THIS TIME STEP      L**3/T
     ------------------                 ------------------------

           IN:                                      IN:
           ---                                      ---
               AG WELLS  =  1278498688.0000                 AG WELLS  =          43.8413
      DIVERSION SEGMENTS =   216236016.0000        DIVERSION SEGMENTS =          50.8780
       IRRIGATION PONDS  =           0.0000         IRRIGATION PONDS  =           0.0000
           GW IRRIGATION =           0.0000             GW IRRIGATION =           0.0000
           SW IRRIGATION =           0.0000             SW IRRIGATION =           0.0000
        SYSTEM LOSSES GW =           0.0000          SYSTEM LOSSES GW =           0.0000
        SYSTEM LOSSES SW =           0.0000          SYSTEM LOSSES SW =           0.0000

                TOTAL IN =  1494734720.0000                  TOTAL IN =          94.7193

          OUT:                                     OUT:
          ----                                     ----
               AG WELLS  =           0.0000                 AG WELLS  =           0.0000
      DIVERSION SEGMENTS =           0.0000        DIVERSION SEGMENTS =           0.0000
       IRRIGATION PONDS  =           0.0000         IRRIGATION PONDS  =           0.0000
           GW IRRIGATION =  1278498688.0000             GW IRRIGATION =          43.8413
           SW IRRIGATION =   216240400.0000             SW IRRIGATION =          50.8790
        SYSTEM LOSSES GW =           0.0000          SYSTEM LOSSES GW =           0.0000
        SYSTEM LOSSES SW =           0.0000          SYSTEM LOSSES SW =           0.0000

               TOTAL OUT =  1494739072.0000                 TOTAL OUT =          94.7203

                IN - OUT =       -4352.0000                  IN - OUT =      -1.0147E-03

     PERCENT DISCREPANCY =          -0.00         PERCENT DISCREPANCY =          -0.00



1
  VOLUMETRIC BUDGET FOR ENTIRE MODEL AT END OF TIME STEP   30, STRESS PERIOD   8
  ------------------------------------------------------------------------------

     CUMULATIVE VOLUMES      L**3       RATES FOR THIS TIME STEP      L**3/T
     ------------------                 ------------------------

           IN:                                      IN:
           ---                                      ---
             STORAGE     =  1456304384.0000               STORAGE     =          45.2534
       CONSTANT HEAD     =           0.0000         CONSTANT HEAD     =           0.0000
     HEAD DEP BOUNDS     =     5284909.0000       HEAD DEP BOUNDS     =           0.2858
      STREAM LEAKAGE     =   226313088.0000        STREAM LEAKAGE     =          12.1283
        UZF RECHARGE     =   673895744.0000          UZF RECHARGE     =         108.3020
               GW ET     =           0.0000                 GW ET     =           0.0000
     SURFACE LEAKAGE     =           0.0000       SURFACE LEAKAGE     =           0.0000
           AG WELLS      =           0.0000             AG WELLS      =           0.0000

                TOTAL IN =  2361798144.0000                  TOTAL IN =         165.9695

          OUT:                                     OUT:
          ----                                     ----
             STORAGE     =   878027840.0000               STORAGE     =         109.9861
       CONSTANT HEAD     =           0.0000         CONSTANT HEAD     =           0.0000
     HEAD DEP BOUNDS     =     5396611.0000       HEAD DEP BOUNDS     =           0.2896
      STREAM LEAKAGE     =   198671152.0000        STREAM LEAKAGE     =          11.8534
        UZF RECHARGE     =           0.0000          UZF RECHARGE     =           0.0000
               GW ET     =     1207612.8750                 GW ET     =           0.0000
     SURFACE LEAKAGE     =           0.0000       SURFACE LEAKAGE     =           0.0000
           AG WELLS      =  1278498688.0000             AG WELLS      =          43.8413

               TOTAL OUT =  2361801728.0000                 TOTAL OUT =         165.9703

                IN - OUT =       -3584.0000                  IN - OUT =      -8.2397E-04

     PERCENT DISCREPANCY =          -0.00         PERCENT DISCREPANCY =          -0.00






         TIME SUMMARY AT END OF TIME STEP   30 IN STRESS PERIOD    8
                    SECONDS     MINUTES      HOURS       DAYS        YEARS
                    -----------------------------------------------------------
   TIME STEP LENGTH  87667.      1461.1      24.352      1.0147     2.77799E-03
 STRESS PERIOD TIME 2.63000E+06  43833.      730.56      30.440     8.33397E-02
         TOTAL TIME 1.84964E+07 3.08274E+05  5137.9      214.08     0.58612    
1
1
                            STRESS PERIOD NO.    9, LENGTH =   2630000.    
                            -----------------------------------------------

                              NUMBER OF TIME STEPS =    30

                               MULTIPLIER FOR DELT =     1.000

                            INITIAL TIME STEP SIZE =   87666.66    

 REUSING NON-PARAMETER GHB CELLS FROM LAST STRESS PERIOD

      2 GHB CELLS

 REUSING STREAM SEGMENT DATA FROM LAST STRESS PERIOD



            AREAL INFILTRATION RATE
 READING ON UNIT   19 WITH FORMAT: (FREE)              

            1           2           3           4           5           6           7           8           9          10
 ........................................................................................................................
   1   1.0000E-10  2.0000E-10   0.000       0.000       0.000       0.000       0.000       0.000       0.000       0.000    
   2   2.0000E-10  1.0000E-10  2.0000E-10   0.000       0.000      8.0000E-10  8.0000E-10  5.0000E-10   0.000       0.000    
   3    0.000      5.0000E-10  1.0000E-10  1.0000E-10  8.0000E-10  8.0000E-10  5.0000E-10  5.0000E-10   0.000       0.000    
   4   8.0000E-10  5.0000E-10  1.0000E-10  1.0000E-10  1.0000E-10  1.0000E-10  1.0000E-10  1.0000E-10  2.0000E-10   0.000    
   5   8.0000E-10  5.0000E-10  1.0000E-10  1.0000E-10  1.0000E-10  1.0000E-10  1.0000E-10  1.0000E-10  1.0000E-10  1.0000E-10
   6   8.0000E-10  5.0000E-10  5.0000E-10  2.0000E-10  2.0000E-10  1.0000E-10  1.0000E-10  1.0000E-10  1.0000E-10  5.0000E-10
   7   8.0000E-10  5.0000E-10  5.0000E-10  2.0000E-10  2.0000E-10  1.0000E-10  1.0000E-10  2.0000E-10  2.0000E-10   0.000    
   8    0.000      5.0000E-10  5.0000E-10  2.0000E-10  2.0000E-10  1.0000E-10  1.0000E-10  2.0000E-10  5.0000E-10   0.000    
   9    0.000      5.0000E-10  5.0000E-10  2.0000E-10  2.0000E-10  1.0000E-10  1.0000E-10  2.0000E-10  5.0000E-10   0.000    
  10    0.000      5.0000E-10  5.0000E-10  2.0000E-10  2.0000E-10  1.0000E-10  1.0000E-10  2.0000E-10  5.0000E-10  8.0000E-10
  11    0.000      1.0000E-10  1.0000E-10  1.0000E-10  1.0000E-10  1.0000E-10  1.0000E-10  2.0000E-10  5.0000E-10   0.000    
  12   1.0000E-10  1.0000E-10  1.0000E-10  1.0000E-10  1.0000E-10  1.0000E-10  1.0000E-10  1.0000E-10  2.0000E-10   0.000    
  13   1.0000E-10  1.0000E-10  2.0000E-10  2.0000E-10  2.0000E-10  2.0000E-10  2.0000E-10  1.0000E-10  1.0000E-10   0.000    
  14    0.000      2.0000E-10  5.0000E-10  5.0000E-10  5.0000E-10  5.0000E-10  5.0000E-10  2.0000E-10  1.0000E-10   0.000    
  15    0.000       0.000      8.0000E-10  8.0000E-10  8.0000E-10  8.0000E-10   0.000       0.000       0.000       0.000    

                  ET RATE =  3.250000E-07

 USING ET EXTINCTION DEPTH FROM PREVIOUS STRESS PERIOD. CURRENT PERIOD IS:       9

 USING EXTINCTION WATER CONTENT FROM PREVIOUS STRESS PERIOD. CURRENT PERIOD IS:       9

 USING AIR ENTRY PRESSURE FROM PREVIOUS STRESS PERIOD. CURRENT PERIOD IS:       9

 USING ROOT PRESSURE HEAD FROM PREVIOUS STRESS PERIOD. CURRENT PERIOD IS:       9

 USING ROOT ACTIVITY FROM PREVIOUS STRESS PERIOD. CURRENT PERIOD IS:       9

 PROCESSING AG STRESS PERIOD DATA

 READING AG STRESS PERIOD DATA

 READING IRRIGATION SEGMENT

 READING IRRIGATION WELL

 READING SUPPLEMENTAL WELL

 NO IRRPOND OR REUSING IRRPOND DATA FROM LAST STRESS PERIOD

 END PROCESSING AG STRESS PERIOD DATA OPTIONS
 
 SOLVING FOR HEAD 
                                                   Max.-Head-Change                         Max.-Flux-Residual
  Residual-Control   Outer-Iter.   Inner-Iter.     Column Row Layer    Maximum-Head-Change  Column Row Layer    Maximum-Flux-Residual          L2-NORM 
          0                 1           2             4    8     1       0.1295938425E+01       4    8    1         0.7024382779E+02      0.9819997046E+02
          0                 2           2             5    7     1       0.4879902250E+00       5    7    1         0.2661394610E+02      0.4265337331E+02
          0                 3           2             5    7     1       0.3480655604E+00       5    7    1         0.1882993538E+02      0.2736157031E+02
          0                 4           2             5    6     1       0.1795139218E+00       5    6    1         0.9808874134E+01      0.1222109732E+02
          0                 5           2             5    6     1       0.1045311471E+00       5    6    1         0.5745078683E+01      0.6243932442E+01
          0                 6           2             5    6     1       0.6066960660E-01       5    6    1         0.3341961991E+01      0.3556817214E+01
          0                 7           2             5    6     1       0.3516980759E-01       5    6    1         0.1938924612E+01      0.2060394906E+01
          0                 8           2             5    6     1       0.2037857271E-01       5    6    1         0.1123825222E+01      0.1195973745E+01
          0                 9           2             5    6     1       0.1180608679E-01       5    6    1         0.6511486813E+00      0.6943411299E+00
          0                10           2             5    6     1       0.6839317373E-02       5    6    1         0.3772283300E+00      0.4031208111E+00
                                                   Max.-Head-Change                         Max.-Flux-Residual
  Residual-Control   Outer-Iter.   Inner-Iter.     Column Row Layer    Maximum-Head-Change  Column Row Layer    Maximum-Flux-Residual          L2-NORM 
          0                11           2             5    6     1       0.3961972181E-02       5    6    1         0.2185286112E+00      0.2340536948E+00
          0                12           2             5    6     1       0.2295136326E-02       5    6    1         0.1265919655E+00      0.1359005814E+00
          0                13           2             5    6     1       0.1329555391E-02       5    6    1         0.7333361586E-01      0.7891446269E-01
          0                14           2             5    6     1       0.7702048207E-03       5    6    1         0.4248163297E-01      0.4582720746E-01
          0                15           2             5    6     1       0.4461781214E-03       5    6    1         0.2460941278E-01      0.2661478156E-01
          0                16           2             5    6     1       0.2584715369E-03       5    6    1         0.1425619335E-01      0.1545809767E-01
          0                17           2             5    6     1       0.1497337458E-03       5    6    1         0.8258636189E-02      0.8978909647E-02
          0                18           1             5    6     1       0.8674196136E-04       5    6    1         0.4784269225E-02      0.5215864581E-02

    ------------------------------------------------
       NWT REQUIRED           18 OUTER ITERATIONS 
       AND A TOTAL OF         35 INNER ITERATIONS.
    ------------------------------------------------

 NO OUTPUT CONTROL FOR STRESS PERIOD    9   TIME STEP    1
 
 SOLVING FOR HEAD 
                                                   Max.-Head-Change                         Max.-Flux-Residual
  Residual-Control   Outer-Iter.   Inner-Iter.     Column Row Layer    Maximum-Head-Change  Column Row Layer    Maximum-Flux-Residual          L2-NORM 
          0                 1           2             4    7     1       0.1937579589E+01       4    7    1         0.1046607065E+03      0.1234110224E+03
          0                 2           2             4    8     1      -0.1833858238E+01       5    8    1        -0.9995541229E+02      0.2205917564E+03
          0                 3           2             4    6     1      -0.7234957127E+00       4    6    1        -0.3992868910E+02      0.5146524985E+02
          0                 4           2             4    6     1      -0.4364825671E+00       4    6    1        -0.2431391416E+02      0.2541458251E+02
          0                 5           2             4    6     1      -0.2616046224E+00       4    6    1        -0.1465235939E+02      0.1471512976E+02
          0                 6           2             4    6     1      -0.1560377350E+00       4    6    1        -0.8740982792E+01      0.8749221113E+01
          0                 7           2             4    6     1       0.1059299126E-01       4    6    1         0.6123068856E+00      0.6259507378E+00
          0                 8           2             4    7     1      -0.5247234115E-03       4    7    1        -0.2900671802E-01      0.3837338833E-01
          0                 9           1             4    7     1      -0.1270626738E-03       4    7    1        -0.7112774407E-02      0.7118994639E-02
          0                10           1             4    7     1      -0.3076754424E-04       4    7    1        -0.1721249947E-02      0.1721272083E-02

    ------------------------------------------------
       NWT REQUIRED           10 OUTER ITERATIONS 
       AND A TOTAL OF         18 INNER ITERATIONS.
    ------------------------------------------------

 NO OUTPUT CONTROL FOR STRESS PERIOD    9   TIME STEP    2
 
 SOLVING FOR HEAD 
                                                   Max.-Head-Change                         Max.-Flux-Residual
  Residual-Control   Outer-Iter.   Inner-Iter.     Column Row Layer    Maximum-Head-Change  Column Row Layer    Maximum-Flux-Residual          L2-NORM 
          0                 1           2             4    6     1       0.1615763201E+01       4    6    1         0.8803461672E+02      0.8829454991E+02
          0                 2           2             5    7     1      -0.1772048838E+00       4    6    1         0.9937849835E+01      0.2335294600E+02
          0                 3           2             4    6     1       0.3861258253E-01       4    6    1         0.2109652199E+01      0.2728517987E+01
          0                 4           2             4    6     1       0.8506944458E-02       4    6    1         0.4633063361E+00      0.4726160515E+00
          0                 5           2             4    6     1       0.1874224939E-02       4    6    1         0.1022322736E+00      0.1022740552E+00
          0                 6           2             4    6     1       0.4129239492E-03       4    6    1         0.2251377167E-01      0.2251520715E-01
          0                 7           1             4    6     1       0.9097425652E-04       4    6    1         0.4960082097E-02      0.4960422521E-02

    ------------------------------------------------
       NWT REQUIRED            7 OUTER ITERATIONS 
       AND A TOTAL OF         13 INNER ITERATIONS.
    ------------------------------------------------

 NO OUTPUT CONTROL FOR STRESS PERIOD    9   TIME STEP    3
 
 SOLVING FOR HEAD 
                                                   Max.-Head-Change                         Max.-Flux-Residual
  Residual-Control   Outer-Iter.   Inner-Iter.     Column Row Layer    Maximum-Head-Change  Column Row Layer    Maximum-Flux-Residual          L2-NORM 
          0                 1           2             4    7     1       0.7549366382E-01       4    7    1         0.4030037085E+01      0.8422644122E+01
          0                 2           2             4    7     1      -0.1864173441E+01       5    6    1        -0.1003026007E+03      0.2451631965E+03
          0                 3           2             5    7     1       0.1256901159E+00       5    6    1         0.7020141977E+01      0.1667111264E+02
          0                 4           2             5    7     1      -0.5001441799E-02       5    6    1        -0.2871332032E+00      0.6950582398E+00
          0                 5           2             7   13     1       0.1427735914E-03       7   13    1         0.8182651968E-02      0.1233188912E-01
          0                 6           1             7   13     1      -0.5678236986E-05       7   13    1        -0.3343829114E-03      0.3614776916E-03

    ------------------------------------------------
       NWT REQUIRED            6 OUTER ITERATIONS 
       AND A TOTAL OF         11 INNER ITERATIONS.
    ------------------------------------------------

 NO OUTPUT CONTROL FOR STRESS PERIOD    9   TIME STEP    4
 
 SOLVING FOR HEAD 
                                                   Max.-Head-Change                         Max.-Flux-Residual
  Residual-Control   Outer-Iter.   Inner-Iter.     Column Row Layer    Maximum-Head-Change  Column Row Layer    Maximum-Flux-Residual          L2-NORM 
          0                 1           2             5    8     1       0.4409397179E+00       5    8    1         0.2428285721E+02      0.2636234518E+02
          0                 2           2             4    7     1      -0.1845999185E+00       5    6    1        -0.1005045071E+02      0.2264340132E+02
          0                 3           2             5    8     1       0.4542186442E-01       5    8    1         0.2485950159E+01      0.2933177280E+01
          0                 4           2             5    8     1       0.2629637714E-01       5    8    1         0.1451962298E+01      0.1453289254E+01
          0                 5           2             5    8     1       0.1522387841E-01       5    8    1         0.8400817776E+00      0.8400881896E+00
          0                 6           2             5    8     1       0.8813616693E-02       5    8    1         0.4863466319E+00      0.4863512360E+00
          0                 7           1             5    8     1       0.5102496170E-02       5    8    1         0.2815625889E+00      0.2815652668E+00
          0                 8           1             5    8     1       0.2954003655E-02       5    8    1         0.1630060013E+00      0.1630075515E+00
          0                 9           1             5    8     1       0.1710169909E-02       5    8    1         0.9436957817E-01      0.9437047540E-01
          0                10           1             5    8     1       0.9900734852E-03       5    8    1         0.5463365980E-01      0.5463417910E-01
                                                   Max.-Head-Change                         Max.-Flux-Residual
  Residual-Control   Outer-Iter.   Inner-Iter.     Column Row Layer    Maximum-Head-Change  Column Row Layer    Maximum-Flux-Residual          L2-NORM 
          0                11           1             5    8     1       0.5731859853E-03       5    8    1         0.3162922090E-01      0.3162952147E-01
          0                12           1             5    8     1       0.3318361338E-03       5    8    1         0.1831119334E-01      0.1831136731E-01
          0                13           1             5    8     1       0.1921107976E-03       5    8    1         0.1060094974E-01      0.1060105043E-01
          0                14           1             5    8     1       0.1112192258E-03       5    8    1         0.6137236889E-02      0.6137295218E-02
          0                15           1             5    8     1       0.6438844793E-04       5    8    1         0.3553047301E-02      0.3553081100E-02

    ------------------------------------------------
       NWT REQUIRED           15 OUTER ITERATIONS 
       AND A TOTAL OF         21 INNER ITERATIONS.
    ------------------------------------------------

 NO OUTPUT CONTROL FOR STRESS PERIOD    9   TIME STEP    5
 
 SOLVING FOR HEAD 
                                                   Max.-Head-Change                         Max.-Flux-Residual
  Residual-Control   Outer-Iter.   Inner-Iter.     Column Row Layer    Maximum-Head-Change  Column Row Layer    Maximum-Flux-Residual          L2-NORM 
          0                 1           2             5    8     1       0.4545229551E+00       5    8    1         0.2493047644E+02      0.2783970393E+02
          0                 2           2             4    7     1      -0.1870474003E+01       5    6    1        -0.1005755039E+03      0.2416365353E+03
          0                 3           2             5    8     1      -0.4027430435E+00       5    8    1        -0.2292571464E+02      0.2699700356E+02
          0                 4           2             5    8     1       0.2741792999E-01       5    8    1         0.1601033761E+01      0.1714810305E+01
          0                 5           2             5    8     1      -0.1091295146E-02       5    8    1        -0.6535770458E-01      0.6666585496E-01
          0                 6           1             5    8     1       0.1346605207E-04       5    8    1         0.8256543244E-03      0.9062238774E-03

    ------------------------------------------------
       NWT REQUIRED            6 OUTER ITERATIONS 
       AND A TOTAL OF         11 INNER ITERATIONS.
    ------------------------------------------------

 NO OUTPUT CONTROL FOR STRESS PERIOD    9   TIME STEP    6
 
 SOLVING FOR HEAD 
                                                   Max.-Head-Change                         Max.-Flux-Residual
  Residual-Control   Outer-Iter.   Inner-Iter.     Column Row Layer    Maximum-Head-Change  Column Row Layer    Maximum-Flux-Residual          L2-NORM 
          0                 1           2             5    6     1       0.6703642319E+00       5    6    1         0.3653843428E+02      0.5347497735E+02
          0                 2           2             5    6     1       0.2134146990E+00       5    6    1         0.1198490854E+02      0.2176076319E+02
          0                 3           2             5    6     1       0.1232878433E+00       5    6    1         0.6803603511E+01      0.7033022157E+01
          0                 4           2             5    6     1       0.7133979864E-01       5    6    1         0.3938510991E+01      0.3948760911E+01
          0                 5           2             5    6     1       0.4130808247E-01       5    6    1         0.2279093670E+01      0.2279845895E+01
          0                 6           2             5    6     1       0.2392527906E-01       5    6    1         0.1319759770E+01      0.1319852463E+01
          0                 7           2             5    6     1       0.1385885482E-01       5    6    1         0.7644057760E+00      0.7644707813E+00
          0                 8           2             5    6     1       0.5743297010E-02       5    6    1         0.3167324823E+00      0.3168043486E+00
          0                 9           2             5    6     1       0.1245172557E-02       5    6    1         0.6863434562E-01      0.6872348001E-01
          0                10           2             5    6     1       0.2701297253E-03       5    6    1         0.1488171764E-01      0.1493693914E-01
          0                11           1             5    6     1       0.5864639710E-04       5    6    1         0.3228786698E-02      0.3255244007E-02

    ------------------------------------------------
       NWT REQUIRED           11 OUTER ITERATIONS 
       AND A TOTAL OF         21 INNER ITERATIONS.
    ------------------------------------------------

 NO OUTPUT CONTROL FOR STRESS PERIOD    9   TIME STEP    7
 
 SOLVING FOR HEAD 
                                                   Max.-Head-Change                         Max.-Flux-Residual
  Residual-Control   Outer-Iter.   Inner-Iter.     Column Row Layer    Maximum-Head-Change  Column Row Layer    Maximum-Flux-Residual          L2-NORM 
          0                 1           2             4    7     1       0.1051419076E+01       4    7    1         0.5641085781E+02      0.7468948289E+02
          0                 2           2             5    8     1      -0.1827685347E+01       5    8    1        -0.1007021877E+03      0.2302864631E+03
          0                 3           2             4    6     1      -0.7559084761E+00       4    6    1        -0.4213311660E+02      0.4890976908E+02
          0                 4           2             4    6     1      -0.3038889736E+00       4    6    1        -0.1695070861E+02      0.1785067305E+02
          0                 5           2             4    7     1      -0.2520382967E-01       4    7    1        -0.1426006206E+01      0.1855549577E+01
          0                 6           2             4    7     1      -0.6107184163E-02       4    7    1        -0.3408488098E+00      0.3443790838E+00
          0                 7           1             4    7     1      -0.1479806108E-02       4    7    1        -0.8275910767E-01      0.8276067662E-01
          0                 8           1             4    7     1      -0.3585550496E-03       4    7    1        -0.2005007255E-01      0.2005039338E-01
          0                 9           1             4    7     1      -0.8687486993E-04       4    7    1        -0.4857945876E-02      0.4858017135E-02

    ------------------------------------------------
       NWT REQUIRED            9 OUTER ITERATIONS 
       AND A TOTAL OF         15 INNER ITERATIONS.
    ------------------------------------------------

 NO OUTPUT CONTROL FOR STRESS PERIOD    9   TIME STEP    8
 
 SOLVING FOR HEAD 
                                                   Max.-Head-Change                         Max.-Flux-Residual
  Residual-Control   Outer-Iter.   Inner-Iter.     Column Row Layer    Maximum-Head-Change  Column Row Layer    Maximum-Flux-Residual          L2-NORM 
          0                 1           2             4    6     1       0.6105544962E+00       4    6    1         0.3313931802E+02      0.3765481717E+02
          0                 2           2             5    8     1      -0.1893552848E+00       5    8    1        -0.1044517660E+02      0.2221374259E+02
          0                 3           2             4    7     1      -0.2821430947E-01       4    7    1        -0.1589787836E+01      0.2228353668E+01
          0                 4           2             4    6     1      -0.2630180792E-02       4    6    1        -0.1484820024E+00      0.1947101751E+00
          0                 5           2             4    6     1      -0.6356166026E-03       4    6    1        -0.3556314886E-01      0.3586435802E-01
          0                 6           2             4    6     1      -0.1536002389E-03       4    6    1        -0.8608275326E-02      0.8608409211E-02
          0                 7           1             4    6     1      -0.3711725000E-04       4    6    1        -0.2079971460E-02      0.2080000891E-02

    ------------------------------------------------
       NWT REQUIRED            7 OUTER ITERATIONS 
       AND A TOTAL OF         13 INNER ITERATIONS.
    ------------------------------------------------

 NO OUTPUT CONTROL FOR STRESS PERIOD    9   TIME STEP    9
 
 SOLVING FOR HEAD 
                                                   Max.-Head-Change                         Max.-Flux-Residual
  Residual-Control   Outer-Iter.   Inner-Iter.     Column Row Layer    Maximum-Head-Change  Column Row Layer    Maximum-Flux-Residual          L2-NORM 
          0                 1           2             5    8     1       0.1737759521E+00       5    8    1         0.9484753974E+01      0.1941287230E+02
          0                 2           2             5    7     1      -0.1856710701E+01       5    8    1        -0.1009484669E+03      0.2452624378E+03
          0                 3           2             5    7     1       0.1260846658E+00       5    8    1         0.7064306417E+01      0.1583491156E+02
          0                 4           2             5    7     1      -0.5017203129E-02       5    8    1        -0.2888261145E+00      0.6611601557E+00
          0                 5           2             7   13     1       0.1404685434E-03       7   13    1         0.8051151121E-02      0.1195550707E-01
          0                 6           1             7   13     1      -0.5585899481E-05       7   13    1        -0.3289974793E-03      0.3542478399E-03

    ------------------------------------------------
       NWT REQUIRED            6 OUTER ITERATIONS 
       AND A TOTAL OF         11 INNER ITERATIONS.
    ------------------------------------------------

 NO OUTPUT CONTROL FOR STRESS PERIOD    9   TIME STEP   10
 
 SOLVING FOR HEAD 
                                                   Max.-Head-Change                         Max.-Flux-Residual
  Residual-Control   Outer-Iter.   Inner-Iter.     Column Row Layer    Maximum-Head-Change  Column Row Layer    Maximum-Flux-Residual          L2-NORM 
          0                 1           2             5    8     1       0.2195151547E+00       5    8    1         0.1200245116E+02      0.2443795545E+02
          0                 2           2             5    8     1      -0.1934967075E+00       5    8    1        -0.1067803969E+02      0.2545186863E+02
          0                 3           2             5    8     1       0.1317625669E-01       5    8    1         0.7474532140E+00      0.1784540232E+01
          0                 4           2             5    8     1      -0.5242963023E-03       5    8    1        -0.3057092488E-01      0.7320898739E-01
          0                 5           1             5    8     1       0.6464799257E-05       5    8    1         0.3874277634E-03      0.9692675231E-03

    ------------------------------------------------
       NWT REQUIRED            5 OUTER ITERATIONS 
       AND A TOTAL OF          9 INNER ITERATIONS.
    ------------------------------------------------

 NO OUTPUT CONTROL FOR STRESS PERIOD    9   TIME STEP   11
 
 SOLVING FOR HEAD 
                                                   Max.-Head-Change                         Max.-Flux-Residual
  Residual-Control   Outer-Iter.   Inner-Iter.     Column Row Layer    Maximum-Head-Change  Column Row Layer    Maximum-Flux-Residual          L2-NORM 
          0                 1           2             5    8     1       0.2139480191E+00       5    8    1         0.1168860397E+02      0.2411412533E+02
          0                 2           2             4    7     1      -0.1874592475E+01       5    8    1        -0.1011688423E+03      0.2470870747E+03
          0                 3           2             4    7     1       0.1276337059E+00       5    8    1         0.7079820161E+01      0.1732969663E+02
          0                 4           2             4    7     1      -0.5078756320E-02       5    8    1        -0.2894688202E+00      0.7210371648E+00
          0                 5           2             7   13     1       0.1397286270E-03       7   13    1         0.8008785859E-02      0.1247075223E-01
          0                 6           1             7   13     1      -0.5557531513E-05       7   13    1        -0.3273305499E-03      0.3569184306E-03

    ------------------------------------------------
       NWT REQUIRED            6 OUTER ITERATIONS 
       AND A TOTAL OF         11 INNER ITERATIONS.
    ------------------------------------------------

 NO OUTPUT CONTROL FOR STRESS PERIOD    9   TIME STEP   12
 
 SOLVING FOR HEAD 
                                                   Max.-Head-Change                         Max.-Flux-Residual
  Residual-Control   Outer-Iter.   Inner-Iter.     Column Row Layer    Maximum-Head-Change  Column Row Layer    Maximum-Flux-Residual          L2-NORM 
          0                 1           2             5    8     1       0.2575965481E+00       5    8    1         0.1408980902E+02      0.2917606391E+02
          0                 2           2             5    8     1      -0.1972022077E+00       5    8    1        -0.1088676308E+02      0.2584606789E+02
          0                 3           2             5    8     1       0.1342858820E-01       5    8    1         0.7620639009E+00      0.1812051639E+01
          0                 4           2             5    8     1      -0.5343368060E-03       5    8    1        -0.3116850261E-01      0.7432786047E-01
          0                 5           1             5    8     1       0.6588603318E-05       5    8    1         0.3950009282E-03      0.9824276064E-03

    ------------------------------------------------
       NWT REQUIRED            5 OUTER ITERATIONS 
       AND A TOTAL OF          9 INNER ITERATIONS.
    ------------------------------------------------

 NO OUTPUT CONTROL FOR STRESS PERIOD    9   TIME STEP   13
 
 SOLVING FOR HEAD 
                                                   Max.-Head-Change                         Max.-Flux-Residual
  Residual-Control   Outer-Iter.   Inner-Iter.     Column Row Layer    Maximum-Head-Change  Column Row Layer    Maximum-Flux-Residual          L2-NORM 
          0                 1           2             5    8     1       0.1245793629E+01       5    8    1         0.6859260042E+02      0.7306746187E+02
          0                 2           2             4    7     1      -0.1875768335E+01       5    6    1        -0.1012153931E+03      0.2396733555E+03
          0                 3           2             5    8     1      -0.4459583559E+00       5    8    1        -0.2550235417E+02      0.3002052438E+02
          0                 4           2             5    8     1      -0.1350399286E+00       5    8    1        -0.7649159113E+01      0.7678481326E+01
          0                 5           2             5    8     1      -0.4088745602E-01       5    8    1        -0.2318539054E+01      0.2318568705E+01
          0                 6           2             5    8     1      -0.1237950886E-01       5    8    1        -0.7019456220E+00      0.7019518312E+00
          0                 7           1             5    8     1      -0.3748052525E-02       5    8    1        -0.2125204591E+00      0.2125222013E+00
          0                 8           1             5    8     1      -0.1134744417E-02       5    8    1        -0.6434119580E-01      0.6434172799E-01
          0                 9           1             5    8     1      -0.3435428677E-03       5    8    1        -0.1947904979E-01      0.1947921055E-01
          0                10           1             5    8     1      -0.1040050488E-03       5    8    1        -0.5897082529E-02      0.5897131229E-02
          0                11           1             5    8     1      -0.3148607672E-04       5    8    1        -0.1785242634E-02      0.1785257378E-02

    ------------------------------------------------
       NWT REQUIRED           11 OUTER ITERATIONS 
       AND A TOTAL OF         17 INNER ITERATIONS.
    ------------------------------------------------

 NO OUTPUT CONTROL FOR STRESS PERIOD    9   TIME STEP   14
 
 SOLVING FOR HEAD 
                                                   Max.-Head-Change                         Max.-Flux-Residual
  Residual-Control   Outer-Iter.   Inner-Iter.     Column Row Layer    Maximum-Head-Change  Column Row Layer    Maximum-Flux-Residual          L2-NORM 
          0                 1           2             5    8     1       0.3900709451E+00       5    8    1         0.2135225585E+02      0.3658583589E+02
          0                 2           2             5    6     1      -0.1981976132E+00       5    6    1        -0.1092184621E+02      0.2325691907E+02
          0                 3           2             5    8     1       0.2777396682E-01       5    8    1         0.1539214488E+01      0.2441403932E+01
          0                 4           2             5    8     1       0.1604753298E-01       5    8    1         0.8843806155E+00      0.8902631619E+00
          0                 5           2             5    8     1       0.9272102616E-02       5    8    1         0.5114655103E+00      0.5114771627E+00
          0                 6           1             5    8     1       0.5357322886E-02       5    8    1         0.2954893701E+00      0.2954926114E+00
          0                 7           1             5    8     1       0.3095403153E-02       5    8    1         0.1707319210E+00      0.1707336595E+00
          0                 8           1             5    8     1       0.1788489958E-02       5    8    1         0.9864702355E-01      0.9864803248E-01
          0                 9           1             5    8     1       0.1033369706E-02       5    8    1         0.5699717592E-01      0.5699775851E-01
          0                10           1             5    8     1       0.5970695292E-03       5    8    1         0.3293233991E-01      0.3293267664E-01
                                                   Max.-Head-Change                         Max.-Flux-Residual
  Residual-Control   Outer-Iter.   Inner-Iter.     Column Row Layer    Maximum-Head-Change  Column Row Layer    Maximum-Flux-Residual          L2-NORM 
          0                11           1             5    8     1       0.3449801197E-03       5    8    1         0.1902794089E-01      0.1902813565E-01
          0                12           1             5    8     1       0.1993256627E-03       5    8    1         0.1099413257E-01      0.1099424547E-01
          0                13           1             5    8     1       0.1151681410E-03       5    8    1         0.6352287262E-02      0.6352353036E-02
          0                14           1             5    8     1       0.6654286457E-04       5    8    1         0.3670280699E-02      0.3670318181E-02

    ------------------------------------------------
       NWT REQUIRED           14 OUTER ITERATIONS 
       AND A TOTAL OF         19 INNER ITERATIONS.
    ------------------------------------------------

 NO OUTPUT CONTROL FOR STRESS PERIOD    9   TIME STEP   15
 
 SOLVING FOR HEAD 
                                                   Max.-Head-Change                         Max.-Flux-Residual
  Residual-Control   Outer-Iter.   Inner-Iter.     Column Row Layer    Maximum-Head-Change  Column Row Layer    Maximum-Flux-Residual          L2-NORM 
          0                 1           2             5    8     1       0.1871750334E+01       5    8    1         0.1030291703E+03      0.1082484118E+03
          0                 2           2             4    6     1      -0.1855746478E+01       4    6    1        -0.1011532475E+03      0.2280492125E+03
          0                 3           2             5    8     1      -0.3961335374E+00       5    8    1        -0.2248427336E+02      0.2441238617E+02
          0                 4           2             5    8     1      -0.1199255934E+00       5    8    1        -0.6801771432E+01      0.6822044068E+01
          0                 5           2             5    8     1      -0.3630405530E-01       5    8    1        -0.2058870173E+01      0.2058965327E+01
          0                 6           2             5    8     1      -0.1098965372E-01       5    8    1        -0.6232672039E+00      0.6232705706E+00
          0                 7           1             5    8     1      -0.3326610864E-02       5    8    1        -0.1886606056E+00      0.1886614991E+00
          0                 8           1             5    8     1      -0.1006955277E-02       5    8    1        -0.5710665666E-01      0.5710693046E-01
          0                 9           1             5    8     1      -0.3047957263E-03       5    8    1        -0.1728545792E-01      0.1728554040E-01
          0                10           1             5    8     1      -0.9225675431E-04       5    8    1        -0.5231981663E-02      0.5232006668E-02

    ------------------------------------------------
       NWT REQUIRED           10 OUTER ITERATIONS 
       AND A TOTAL OF         16 INNER ITERATIONS.
    ------------------------------------------------

 NO OUTPUT CONTROL FOR STRESS PERIOD    9   TIME STEP   16
 
 SOLVING FOR HEAD 
                                                   Max.-Head-Change                         Max.-Flux-Residual
  Residual-Control   Outer-Iter.   Inner-Iter.     Column Row Layer    Maximum-Head-Change  Column Row Layer    Maximum-Flux-Residual          L2-NORM 
          0                 1           2             4    8     1       0.1111569017E+01       4    8    1         0.5989430686E+02      0.8940140251E+02
          0                 2           2             4    8     1       0.4806697508E+00       4    8    1         0.2609093280E+02      0.3693744425E+02
          0                 3           2             4    8     1       0.2845590562E+00       4    8    1         0.1536518662E+02      0.1988977938E+02
          0                 4           2             4    8     1       0.1545292627E+00       4    8    1         0.8343112158E+01      0.1122161308E+02
          0                 5           2             5    7     1       0.5926265891E-01       5    7    1         0.3204201168E+01      0.5088759423E+01
          0                 6           2             5    7     1       0.3505574718E-01       5    7    1         0.1895262424E+01      0.2748820581E+01
          0                 7           2             5    7     1       0.2073825661E-01       5    7    1         0.1121133196E+01      0.1588101820E+01
          0                 8           2             5    7     1       0.1226911778E-01       5    7    1         0.6632493482E+00      0.9346161162E+00
          0                 9           2             5    7     1       0.7259031390E-02       5    7    1         0.3923943786E+00      0.5525216546E+00
          0                10           2             5    7     1       0.4295027200E-02       5    7    1         0.2321624776E+00      0.3269841368E+00
                                                   Max.-Head-Change                         Max.-Flux-Residual
  Residual-Control   Outer-Iter.   Inner-Iter.     Column Row Layer    Maximum-Head-Change  Column Row Layer    Maximum-Flux-Residual          L2-NORM 
          0                11           2             5    7     1       0.2541402570E-02       5    7    1         0.1373670743E+00      0.1935585431E+00
          0                12           2             5    7     1       0.1503834650E-02       5    7    1         0.8128178508E-01      0.1145845992E+00
          0                13           2             5    7     1       0.8899072833E-03       5    7    1         0.4809751749E-01      0.6783461524E-01
          0                14           2             5    7     1       0.5266311912E-03       5    7    1         0.2846229817E-01      0.4015914926E-01
          0                15           2             5    7     1       0.3116626094E-03       5    7    1         0.1684357455E-01      0.2377525497E-01
          0                16           2             5    7     1       0.1844498705E-03       5    7    1         0.9968154065E-02      0.1407580623E-01
          0                17           1             5    7     1       0.1091658535E-03       5    7    1         0.5899437851E-02      0.8333522644E-02
          0                18           1             5    7     1       0.6461142605E-04       5    7    1         0.3491573445E-02      0.4933906916E-02

    ------------------------------------------------
       NWT REQUIRED           18 OUTER ITERATIONS 
       AND A TOTAL OF         34 INNER ITERATIONS.
    ------------------------------------------------

 NO OUTPUT CONTROL FOR STRESS PERIOD    9   TIME STEP   17
 
 SOLVING FOR HEAD 
                                                   Max.-Head-Change                         Max.-Flux-Residual
  Residual-Control   Outer-Iter.   Inner-Iter.     Column Row Layer    Maximum-Head-Change  Column Row Layer    Maximum-Flux-Residual          L2-NORM 
          0                 1           2             4    7     1       0.1635112982E+01       5    8    1         0.8745191096E+02      0.1488327337E+03
          0                 2           2             4    8     1      -0.1655240092E+01       4    8    1        -0.9029111713E+02      0.1964521484E+03
          0                 3           2             4    6     1      -0.7395147750E+00       4    6    1        -0.4068475635E+02      0.6618017192E+02
          0                 4           2             4    6     1      -0.4481891586E+00       4    6    1        -0.2480287765E+02      0.3014636291E+02
          0                 5           2             4    6     1      -0.1506360233E+00       4    6    1        -0.8289316253E+01      0.1195473730E+02
          0                 6           2             4    7     1      -0.8547478611E-01       4    7    1        -0.4784271395E+01      0.4945081526E+01
          0                 7           2             4    7     1      -0.5119876167E-01       4    7    1        -0.2860824234E+01      0.2880397368E+01
          0                 8           2             4    7     1      -0.3066623077E-01       4    7    1        -0.1713764269E+01      0.1716794950E+01
          0                 9           2             4    7     1      -0.1836747707E-01       4    7    1        -0.1026464240E+01      0.1026941469E+01
          0                10           2             4    7     1      -0.1100097805E-01       4    7    1        -0.6147887971E+00      0.6148663664E+00
                                                   Max.-Head-Change                         Max.-Flux-Residual
  Residual-Control   Outer-Iter.   Inner-Iter.     Column Row Layer    Maximum-Head-Change  Column Row Layer    Maximum-Flux-Residual          L2-NORM 
          0                11           2             4    7     1      -0.6588826209E-02       4    7    1        -0.3682144601E+00      0.3682280636E+00
          0                12           1             4    7     1      -0.3946216601E-02       4    7    1        -0.2205315625E+00      0.2205343897E+00
          0                13           1             4    7     1      -0.2363472091E-02       4    7    1        -0.1320799243E+00      0.1320807157E+00
          0                14           1             4    7     1      -0.1415523300E-02       4    7    1        -0.7910420615E-01      0.7910451558E-01
          0                15           1             4    7     1      -0.8477751827E-03       4    7    1        -0.4737610308E-01      0.4737625521E-01
          0                16           1             4    7     1      -0.5077402387E-03       4    7    1        -0.2837371685E-01      0.2837380045E-01
          0                17           1             4    7     1      -0.3040883000E-03       4    7    1        -0.1699301086E-01      0.1699305905E-01
          0                18           1             4    7     1      -0.1821189348E-03       4    7    1        -0.1017704477E-01      0.1017707312E-01
          0                19           1             4    7     1      -0.1090706158E-03       4    7    1        -0.6094952138E-02      0.6094968970E-02
          0                20           1             4    7     1      -0.6532173422E-04       4    7    1        -0.3650196015E-02      0.3650206054E-02

    ------------------------------------------------
       NWT REQUIRED           20 OUTER ITERATIONS 
       AND A TOTAL OF         31 INNER ITERATIONS.
    ------------------------------------------------

 NO OUTPUT CONTROL FOR STRESS PERIOD    9   TIME STEP   18
 
 SOLVING FOR HEAD 
                                                   Max.-Head-Change                         Max.-Flux-Residual
  Residual-Control   Outer-Iter.   Inner-Iter.     Column Row Layer    Maximum-Head-Change  Column Row Layer    Maximum-Flux-Residual          L2-NORM 
          0                 1           2             4    6     1       0.1279073381E+01       4    6    1         0.6845020386E+02      0.1383351318E+03
          0                 2           2             4    8     1       0.5564712188E+00       4    8    1         0.3003754313E+02      0.5272658810E+02
          0                 3           2             5    6     1       0.3194702550E+00       5    6    1         0.1730911667E+02      0.2679173636E+02
          0                 4           2             5    6     1       0.1882827044E+00       5    6    1         0.1021351055E+02      0.1505793049E+02
          0                 5           2             5    6     1       0.1108797697E+00       5    6    1         0.6018223195E+01      0.8791794719E+01
          0                 6           2             5    6     1       0.6527620581E-01       5    6    1         0.3543805263E+01      0.5183310284E+01
          0                 7           2             5    7     1       0.3851565274E-01       5    6    1         0.2086204862E+01      0.3063062603E+01
          0                 8           2             5    7     1       0.2281260222E-01       5    7    1         0.1231975462E+01      0.1811160438E+01
          0                 9           2             5    7     1       0.1351183994E-01       5    7    1         0.7296940294E+00      0.1071111005E+01
          0                10           2             5    7     1       0.8003063544E-02       5    7    1         0.4321965240E+00      0.6335050020E+00
                                                   Max.-Head-Change                         Max.-Flux-Residual
  Residual-Control   Outer-Iter.   Inner-Iter.     Column Row Layer    Maximum-Head-Change  Column Row Layer    Maximum-Flux-Residual          L2-NORM 
          0                11           2             5    7     1       0.4740241432E-02       5    7    1         0.2559904106E+00      0.3747104205E+00
          0                12           2             5    7     1       0.2807678427E-02       5    7    1         0.1516241823E+00      0.2216511515E+00
          0                13           2             5    7     1       0.1663018743E-02       5    7    1         0.8980818307E-01      0.1311209167E+00
          0                14           2             5    7     1       0.9850309131E-03       5    7    1         0.5319443422E-01      0.7757127738E-01
          0                15           2             5    7     1       0.5834524877E-03       5    7    1         0.3150789503E-01      0.4589400655E-01
          0                16           2             5    7     1       0.3455922398E-03       5    7    1         0.1866274328E-01      0.2715414118E-01
          0                17           2             5    7     1       0.2047034761E-03       5    7    1         0.1105438030E-01      0.1606720058E-01
          0                18           2             5    7     1       0.1212520488E-03       5    7    1         0.6547809688E-02      0.9507523018E-02
          0                19           1             5    7     1       0.7182166685E-04       5    7    1         0.3878468837E-02      0.5626218376E-02

    ------------------------------------------------
       NWT REQUIRED           19 OUTER ITERATIONS 
       AND A TOTAL OF         37 INNER ITERATIONS.
    ------------------------------------------------

 NO OUTPUT CONTROL FOR STRESS PERIOD    9   TIME STEP   19
 
 SOLVING FOR HEAD 
                                                   Max.-Head-Change                         Max.-Flux-Residual
  Residual-Control   Outer-Iter.   Inner-Iter.     Column Row Layer    Maximum-Head-Change  Column Row Layer    Maximum-Flux-Residual          L2-NORM 
          0                 1           2             4    7     1       0.2085227626E+01       4    7    1         0.1117676336E+03      0.1624564237E+03
          0                 2           2             5    7     1      -0.1732962940E+01       5    7    1        -0.9473617868E+02      0.1931050173E+03
          0                 3           2             4    6     1      -0.5757633220E+00       4    6    1        -0.3167057320E+02      0.5448941708E+02
          0                 4           2             4    6     1      -0.3458850254E+00       4    6    1        -0.1931094845E+02      0.2187012317E+02
          0                 5           2             4    6     1      -0.2072529165E+00       4    6    1        -0.1158109204E+02      0.1199302842E+02
          0                 6           2             4    6     1      -0.1240216773E+00       4    6    1        -0.6937992792E+01      0.7008711962E+01
          0                 7           2             4    6     1      -0.7416501485E-01       4    6    1        -0.4151140327E+01      0.4164254459E+01
          0                 8           2             4    6     1      -0.4433505888E-01       4    6    1        -0.2482179174E+01      0.2485006255E+01
          0                 9           2             4    6     1      -0.2649813332E-01       4    6    1        -0.1483745701E+01      0.1484513214E+01
          0                10           2             4    6     1      -0.1583582386E-01       4    6    1        -0.8867737911E+00      0.8870452909E+00
                                                   Max.-Head-Change                         Max.-Flux-Residual
  Residual-Control   Outer-Iter.   Inner-Iter.     Column Row Layer    Maximum-Head-Change  Column Row Layer    Maximum-Flux-Residual          L2-NORM 
          0                11           2             4    6     1      -0.9463303930E-02       4    6    1        -0.5299408164E+00      0.5300604833E+00
          0                12           2             4    6     1      -0.5654987143E-02       4    6    1        -0.3166799643E+00      0.3167407046E+00
          0                13           2             4    6     1      -0.3379187505E-02       4    6    1        -0.1892350265E+00      0.1892683700E+00
          0                14           2             4    6     1      -0.2019237641E-02       4    6    1        -0.1130771427E+00      0.1130962143E+00
          0                15           2             4    6     1      -0.1206586350E-02       4    6    1        -0.6756828176E-01      0.6757942392E-01
          0                16           2             4    6     1      -0.7209844719E-03       4    6    1        -0.4037447601E-01      0.4038105697E-01
          0                17           2             4    6     1      -0.4308144913E-03       4    6    1        -0.2412501139E-01      0.2412892030E-01
          0                18           2             4    6     1      -0.2574256201E-03       4    6    1        -0.1441534639E-01      0.1441767489E-01
          0                19           2             4    6     1      -0.1538191472E-03       4    6    1        -0.8613501441E-02      0.8614890529E-02
          0                20           1             4    6     1      -0.9191073616E-04       4    6    1        -0.5146732025E-02      0.5147561619E-02

    ------------------------------------------------
       NWT REQUIRED           20 OUTER ITERATIONS 
       AND A TOTAL OF         39 INNER ITERATIONS.
    ------------------------------------------------

 NO OUTPUT CONTROL FOR STRESS PERIOD    9   TIME STEP   20
 
 SOLVING FOR HEAD 
                                                   Max.-Head-Change                         Max.-Flux-Residual
  Residual-Control   Outer-Iter.   Inner-Iter.     Column Row Layer    Maximum-Head-Change  Column Row Layer    Maximum-Flux-Residual          L2-NORM 
          0                 1           2             4    8     1       0.1370774639E+01       4    8    1         0.7373495551E+02      0.1388385304E+03
          0                 2           2             5    6     1       0.5173920454E+00       5    6    1         0.2794375878E+02      0.4900414252E+02
          0                 3           2             5    6     1       0.3054146118E+00       5    6    1         0.1654941069E+02      0.2560072712E+02
          0                 4           2             5    6     1       0.1793638495E+00       5    6    1         0.9763968542E+01      0.1330116393E+02
          0                 5           2             5    6     1       0.1045925950E+00       5    6    1         0.5729706245E+01      0.6782685628E+01
          0                 6           2             5    6     1       0.6074112813E-01       5    6    1         0.3337577831E+01      0.3793742336E+01
          0                 7           2             5    6     1       0.3520468942E-01       5    6    1         0.1937262637E+01      0.2178362835E+01
          0                 8           2             5    6     1       0.2038439168E-01       5    6    1         0.1122527908E+01      0.1258528997E+01
          0                 9           2             5    6     1       0.1179750535E-01       5    6    1         0.6498923209E+00      0.7280215950E+00
          0                10           2             5    6     1       0.6826261256E-02       5    6    1         0.3761041081E+00      0.4212200238E+00
                                                   Max.-Head-Change                         Max.-Flux-Residual
  Residual-Control   Outer-Iter.   Inner-Iter.     Column Row Layer    Maximum-Head-Change  Column Row Layer    Maximum-Flux-Residual          L2-NORM 
          0                11           2             5    6     1       0.3949364823E-02       5    6    1         0.2176147366E+00      0.2437086155E+00
          0                12           2             5    6     1       0.2284800697E-02       5    6    1         0.1259002564E+00      0.1410007221E+00
          0                13           2             5    6     1       0.1321777624E-02       5    6    1         0.7283578420E-01      0.8157636232E-01
          0                14           2             5    6     1       0.7646514075E-03       5    6    1         0.4213602168E-01      0.4719585048E-01
          0                15           2             5    6     1       0.4423505501E-03       5    6    1         0.2437575256E-01      0.2730500345E-01
          0                16           2             5    6     1       0.2558992987E-03       5    6    1         0.1410135635E-01      0.1579723105E-01
          0                17           2             5    6     1       0.1480375175E-03       5    6    1         0.8157618070E-02      0.9139465314E-02
          0                18           1             5    6     1       0.8563968447E-04       5    6    1         0.4719175338E-02      0.5287643200E-02

    ------------------------------------------------
       NWT REQUIRED           18 OUTER ITERATIONS 
       AND A TOTAL OF         35 INNER ITERATIONS.
    ------------------------------------------------

 NO OUTPUT CONTROL FOR STRESS PERIOD    9   TIME STEP   21
 
 SOLVING FOR HEAD 
                                                   Max.-Head-Change                         Max.-Flux-Residual
  Residual-Control   Outer-Iter.   Inner-Iter.     Column Row Layer    Maximum-Head-Change  Column Row Layer    Maximum-Flux-Residual          L2-NORM 
          0                 1           2             4    7     1       0.2179457528E+01       4    7    1         0.1166800103E+03      0.1661517567E+03
          0                 2           2             5    6     1      -0.1715916074E+01       5    6    1        -0.9513875239E+02      0.1924778000E+03
          0                 3           2             4    8     1      -0.6545129818E+00       4    8    1        -0.3584994726E+02      0.5681590472E+02
          0                 4           2             4    6     1      -0.2921450468E+00       4    6    1        -0.1627440756E+02      0.1960509690E+02
          0                 5           2             4    6     1      -0.1751714158E+00       4    6    1        -0.9783837152E+01      0.1031787057E+02
          0                 6           2             4    6     1      -0.1048553356E+00       4    6    1        -0.5864521550E+01      0.5955330505E+01
          0                 7           2             4    6     1      -0.6271015907E-01       4    6    1        -0.3509792815E+01      0.3526132544E+01
          0                 8           2             4    6     1      -0.3748767846E-01       4    6    1        -0.2098868549E+01      0.2102197670E+01
          0                 9           2             4    6     1      -0.2240456951E-01       4    6    1        -0.1254613602E+01      0.1255445704E+01
          0                10           2             4    6     1      -0.1338845654E-01       4    6    1        -0.7497929684E+00      0.7500624973E+00
                                                   Max.-Head-Change                         Max.-Flux-Residual
  Residual-Control   Outer-Iter.   Inner-Iter.     Column Row Layer    Maximum-Head-Change  Column Row Layer    Maximum-Flux-Residual          L2-NORM 
          0                11           2             4    6     1      -0.8000096277E-02       4    6    1        -0.4480467687E+00      0.4481577537E+00
          0                12           2             4    6     1      -0.4780172272E-02       4    6    1        -0.2677186308E+00      0.2677726502E+00
          0                13           2             4    6     1      -0.2856157363E-02       4    6    1        -0.1599627105E+00      0.1599916866E+00
          0                14           2             4    6     1      -0.1706531736E-02       4    6    1        -0.9557621462E-01      0.9559258668E-01
          0                15           2             4    6     1      -0.1019628614E-02       4    6    1        -0.5710509995E-01      0.5711460392E-01
          0                16           2             4    6     1      -0.6092085217E-03       4    6    1        -0.3411894178E-01      0.3412453634E-01
          0                17           2             4    6     1      -0.3639876929E-03       4    6    1        -0.2038508904E-01      0.2038840609E-01
          0                18           2             4    6     1      -0.2174725481E-03       4    6    1        -0.1217941688E-01      0.1218139112E-01
          0                19           2             4    6     1      -0.1299329570E-03       4    6    1        -0.7276749375E-02      0.7277926589E-02
          0                20           1             4    6     1      -0.7763032432E-04       4    6    1        -0.4347559037E-02      0.4348261542E-02

    ------------------------------------------------
       NWT REQUIRED           20 OUTER ITERATIONS 
       AND A TOTAL OF         39 INNER ITERATIONS.
    ------------------------------------------------

 NO OUTPUT CONTROL FOR STRESS PERIOD    9   TIME STEP   22
 
 SOLVING FOR HEAD 
                                                   Max.-Head-Change                         Max.-Flux-Residual
  Residual-Control   Outer-Iter.   Inner-Iter.     Column Row Layer    Maximum-Head-Change  Column Row Layer    Maximum-Flux-Residual          L2-NORM 
          0                 1           2             4    8     1       0.1497709372E+01       4    8    1         0.8045539222E+02      0.1362805652E+03
          0                 2           2             5    7     1       0.5479111546E+00       5    7    1         0.2954905816E+02      0.4676163800E+02
          0                 3           2             5    6     1       0.2702615485E+00       5    6    1         0.1475007728E+02      0.2042665473E+02
          0                 4           2             5    8     1       0.1021010088E+00       5    8    1         0.5568517902E+01      0.7776890060E+01
          0                 5           2             5    8     1       0.5946232118E-01       5    8    1         0.3260537518E+01      0.3704662996E+01
          0                 6           2             5    8     1       0.3450615742E-01       5    8    1         0.1897150305E+01      0.2016487898E+01
          0                 7           2             5    8     1       0.1998824686E-01       5    8    1         0.1100419246E+01      0.1149218864E+01
          0                 8           2             5    8     1       0.1156817048E-01       5    8    1         0.6372901639E+00      0.6630570515E+00
          0                 9           2             5    8     1       0.6692078764E-02       5    8    1         0.3687887879E+00      0.3837033102E+00
          0                10           2             5    8     1       0.3870450009E-02       5    8    1         0.2133287720E+00      0.2221978659E+00
                                                   Max.-Head-Change                         Max.-Flux-Residual
  Residual-Control   Outer-Iter.   Inner-Iter.     Column Row Layer    Maximum-Head-Change  Column Row Layer    Maximum-Flux-Residual          L2-NORM 
          0                11           1             5    8     1       0.2238283265E-02       5    8    1         0.1233779887E+00      0.1286933102E+00
          0                12           1             5    8     1       0.1294334474E-02       5    8    1         0.7134858632E-01      0.7454157862E-01
          0                13           1             5    8     1       0.7484595468E-03       5    8    1         0.4125856291E-01      0.4317801572E-01
          0                14           1             5    8     1       0.4327995266E-03       5    8    1         0.2385803932E-01      0.2501211639E-01
          0                15           1             5    8     1       0.2502678376E-03       5    8    1         0.1379598885E-01      0.1448986833E-01
          0                16           1             5    8     1       0.1447187324E-03       5    8    1         0.7977579540E-02      0.8394727892E-02
          0                17           1             5    8     1       0.8368483244E-04       5    8    1         0.4613081263E-02      0.4863830460E-02

    ------------------------------------------------
       NWT REQUIRED           17 OUTER ITERATIONS 
       AND A TOTAL OF         27 INNER ITERATIONS.
    ------------------------------------------------

 NO OUTPUT CONTROL FOR STRESS PERIOD    9   TIME STEP   23
 
 SOLVING FOR HEAD 
                                                   Max.-Head-Change                         Max.-Flux-Residual
  Residual-Control   Outer-Iter.   Inner-Iter.     Column Row Layer    Maximum-Head-Change  Column Row Layer    Maximum-Flux-Residual          L2-NORM 
          0                 1           2             4    6     1       0.1912065749E+01       4    6    1         0.1026648711E+03      0.1605228878E+03
          0                 2           2             5    6     1      -0.1638908200E+01       5    6    1        -0.9071202042E+02      0.1914550057E+03
          0                 3           2             4    8     1      -0.8733690714E+00       4    8    1        -0.4802308322E+02      0.6708467842E+02
          0                 4           2             4    6     1      -0.2030414066E+00       4    6    1        -0.1128755100E+02      0.1629537389E+02
          0                 5           2             4    6     1      -0.1219765646E+00       4    6    1        -0.6801642610E+01      0.7619643678E+01
          0                 6           2             4    6     1      -0.7308224782E-01       4    6    1        -0.4084258695E+01      0.4223011330E+01
          0                 7           2             4    6     1      -0.4372737421E-01       4    6    1        -0.2446419510E+01      0.2470418359E+01
          0                 8           2             4    6     1      -0.2614498033E-01       4    6    1        -0.1463554096E+01      0.1468058207E+01
          0                 9           2             4    6     1      -0.1562658673E-01       4    6    1        -0.8749989684E+00      0.8759853885E+00
          0                10           2             4    6     1      -0.9338060002E-02       4    6    1        -0.5229514667E+00      0.5232233822E+00
                                                   Max.-Head-Change                         Max.-Flux-Residual
  Residual-Control   Outer-Iter.   Inner-Iter.     Column Row Layer    Maximum-Head-Change  Column Row Layer    Maximum-Flux-Residual          L2-NORM 
          0                11           2             4    6     1      -0.5579624423E-02       4    6    1        -0.3124922739E+00      0.3125893656E+00
          0                12           2             4    6     1      -0.3333720302E-02       4    6    1        -0.1867139395E+00      0.1867568676E+00
          0                13           2             4    6     1      -0.1991771913E-02       4    6    1        -0.1115557715E+00      0.1115775621E+00
          0                14           2             4    6     1      -0.1189985415E-02       4    6    1        -0.6664914897E-01      0.6666110256E-01
          0                15           2             4    6     1      -0.7109482919E-03       4    6    1        -0.3981890258E-01      0.3982573521E-01
          0                16           2             4    6     1      -0.4247468350E-03       4    6    1        -0.2378913099E-01      0.2379312088E-01
          0                17           2             4    6     1      -0.2537574364E-03       4    6    1        -0.1421228046E-01      0.1421463623E-01
          0                18           2             4    6     1      -0.1516017696E-03       4    6    1        -0.8490739628E-02      0.8492138540E-02
          0                19           1             4    6     1      -0.9057051238E-04       4    6    1        -0.5072524828E-02      0.5073357917E-02

    ------------------------------------------------
       NWT REQUIRED           19 OUTER ITERATIONS 
       AND A TOTAL OF         37 INNER ITERATIONS.
    ------------------------------------------------

 NO OUTPUT CONTROL FOR STRESS PERIOD    9   TIME STEP   24
 
 SOLVING FOR HEAD 
                                                   Max.-Head-Change                         Max.-Flux-Residual
  Residual-Control   Outer-Iter.   Inner-Iter.     Column Row Layer    Maximum-Head-Change  Column Row Layer    Maximum-Flux-Residual          L2-NORM 
          0                 1           2             4    8     1       0.1573750407E+01       4    8    1         0.8441496254E+02      0.1421685588E+03
          0                 2           2             5    6     1       0.5190085498E+00       5    6    1         0.2825758797E+02      0.4466553204E+02
          0                 3           2             5    8     1       0.1976998851E+00       5    8    1         0.1073144326E+02      0.1658122391E+02
          0                 4           2             5    8     1       0.1155080744E+00       5    8    1         0.6318524475E+01      0.7749279221E+01
          0                 5           2             5    8     1       0.6714085775E-01       5    8    1         0.3686796081E+01      0.4194005068E+01
          0                 6           2             5    8     1       0.3892778497E-01       5    8    1         0.2141610480E+01      0.2391044917E+01
          0                 7           2             5    8     1       0.2254169098E-01       5    8    1         0.1241290623E+01      0.1382244202E+01
          0                 8           2             5    8     1       0.1304496862E-01       5    8    1         0.7186724477E+00      0.8017307701E+00
          0                 9           2             5    8     1       0.7546868197E-02       5    8    1         0.4158659234E+00      0.4653785003E+00
          0                10           2             5    8     1       0.4365422961E-02       5    8    1         0.2405804458E+00      0.2701918806E+00
                                                   Max.-Head-Change                         Max.-Flux-Residual
  Residual-Control   Outer-Iter.   Inner-Iter.     Column Row Layer    Maximum-Head-Change  Column Row Layer    Maximum-Flux-Residual          L2-NORM 
          0                11           2             5    8     1       0.2524969178E-02       5    8    1         0.1391591833E+00      0.1568851243E+00
          0                12           1             5    8     1       0.1460404760E-02       5    8    1         0.8048926534E-01      0.9110287755E-01
          0                13           1             5    8     1       0.8446688026E-03       5    8    1         0.4655363973E-01      0.5290870879E-01
          0                14           1             5    8     1       0.4885399569E-03       5    8    1         0.2692566687E-01      0.3073056218E-01
          0                15           1             5    8     1       0.2825637000E-03       5    8    1         0.1557328628E-01      0.1785108613E-01
          0                16           1             5    8     1       0.1634317543E-03       5    8    1         0.9007349004E-02      0.1037077485E-01
          0                17           1             5    8     1       0.9452809947E-04       5    8    1         0.5209759245E-02      0.6025751128E-02

    ------------------------------------------------
       NWT REQUIRED           17 OUTER ITERATIONS 
       AND A TOTAL OF         28 INNER ITERATIONS.
    ------------------------------------------------

 NO OUTPUT CONTROL FOR STRESS PERIOD    9   TIME STEP   25
 
 SOLVING FOR HEAD 
                                                   Max.-Head-Change                         Max.-Flux-Residual
  Residual-Control   Outer-Iter.   Inner-Iter.     Column Row Layer    Maximum-Head-Change  Column Row Layer    Maximum-Flux-Residual          L2-NORM 
          0                 1           2             4    6     1       0.2063863533E+01       4    6    1         0.1110351217E+03      0.1581667480E+03
          0                 2           2             5    6     1      -0.1576980697E+01       5    6    1        -0.8715364089E+02      0.1911318433E+03
          0                 3           2             4    8     1      -0.8335157227E+00       4    8    1        -0.4577237226E+02      0.7411925498E+02
          0                 4           2             4    8     1      -0.2053038437E+00       4    8    1        -0.1122491099E+02      0.1764913099E+02
          0                 5           2             5    8     1      -0.4679334490E-01       5    8    1        -0.2663069408E+01      0.4235408652E+01
          0                 6           2             5    8     1      -0.1417149105E-01       5    8    1        -0.8028867376E+00      0.1281332437E+01
          0                 7           2             4    7     1      -0.4417021123E-02       4    7    1        -0.2441097173E+00      0.3959544133E+00
          0                 8           2             4    7     1      -0.1379979507E-02       4    7    1        -0.7626092076E-01      0.1224105352E+00
          0                 9           2             4    7     1      -0.4311462939E-03       4    7    1        -0.2382521162E-01      0.3786230200E-01
          0                10           2             4    7     1      -0.1347054297E-03       4    7    1        -0.7443546925E-02      0.1171653616E-01
          0                11           1             4    7     1      -0.4208753863E-04       4    7    1        -0.2325580778E-02      0.3627363000E-02

    ------------------------------------------------
       NWT REQUIRED           11 OUTER ITERATIONS 
       AND A TOTAL OF         21 INNER ITERATIONS.
    ------------------------------------------------

 NO OUTPUT CONTROL FOR STRESS PERIOD    9   TIME STEP   26
 
 SOLVING FOR HEAD 
                                                   Max.-Head-Change                         Max.-Flux-Residual
  Residual-Control   Outer-Iter.   Inner-Iter.     Column Row Layer    Maximum-Head-Change  Column Row Layer    Maximum-Flux-Residual          L2-NORM 
          0                 1           2             4    8     1       0.1560826658E+01       4    8    1         0.8356219405E+02      0.1483141263E+03
          0                 2           2             5    6     1       0.4301744905E+00       5    6    1         0.2347028491E+02      0.4117890210E+02
          0                 3           2             5    8     1       0.2191438182E+00       5    8    1         0.1193530041E+02      0.1718023505E+02
          0                 4           2             5    8     1       0.1277625805E+00       5    8    1         0.6999856751E+01      0.8771308425E+01
          0                 5           2             5    8     1       0.7419114920E-01       5    8    1         0.4076829907E+01      0.4911844114E+01
          0                 6           2             5    8     1       0.4299778812E-01       5    8    1         0.2366203949E+01      0.2827512492E+01
          0                 7           2             5    8     1       0.2489525218E-01       5    8    1         0.1371001905E+01      0.1639010952E+01
          0                 8           2             5    8     1       0.1440713824E-01       5    8    1         0.7936973825E+00      0.9516710925E+00
          0                 9           2             5    8     1       0.8335598066E-02       5    8    1         0.4592929857E+00      0.5528299573E+00
          0                10           2             5    8     1       0.4822222579E-02       5    8    1         0.2657272479E+00      0.3212112842E+00
                                                   Max.-Head-Change                         Max.-Flux-Residual
  Residual-Control   Outer-Iter.   Inner-Iter.     Column Row Layer    Maximum-Head-Change  Column Row Layer    Maximum-Flux-Residual          L2-NORM 
          0                11           2             5    8     1       0.2789562357E-02       5    8    1         0.1537236154E+00      0.1866696759E+00
          0                12           1             5    8     1       0.1613677581E-02       5    8    1         0.8892560303E-01      0.1085045269E+00
          0                13           1             5    8     1       0.9334610071E-03       5    8    1         0.5144067072E-01      0.6308445987E-01
          0                14           1             5    8     1       0.5399802006E-03       5    8    1         0.2975678543E-01      0.3668648321E-01
          0                15           1             5    8     1       0.3123658686E-03       5    8    1         0.1721345644E-01      0.2134062145E-01
          0                16           1             5    8     1       0.1806984414E-03       5    8    1         0.9957595328E-02      0.1241747280E-01
          0                17           1             5    8     1       0.1045324029E-03       5    8    1         0.5760313039E-02      0.7227572528E-02
          0                18           1             5    8     1       0.6047189082E-04       5    8    1         0.3332295221E-02      0.4208157694E-02

    ------------------------------------------------
       NWT REQUIRED           18 OUTER ITERATIONS 
       AND A TOTAL OF         29 INNER ITERATIONS.
    ------------------------------------------------

 NO OUTPUT CONTROL FOR STRESS PERIOD    9   TIME STEP   27
 
 SOLVING FOR HEAD 
                                                   Max.-Head-Change                         Max.-Flux-Residual
  Residual-Control   Outer-Iter.   Inner-Iter.     Column Row Layer    Maximum-Head-Change  Column Row Layer    Maximum-Flux-Residual          L2-NORM 
          0                 1           2             4    6     1       0.2154277935E+01       4    6    1         0.1160568470E+03      0.1567278993E+03
          0                 2           2             5    8     1      -0.1597301343E+01       5    8    1        -0.8836036616E+02      0.1907548210E+03
          0                 3           2             5    7     1      -0.8377832285E+00       5    7    1        -0.4620400112E+02      0.8327411382E+02
          0                 4           2             4    8     1      -0.4473493861E+00       4    8    1        -0.2471275968E+02      0.2865514103E+02
          0                 5           2             5    8     1      -0.4897679108E-01       5    8    1        -0.2800364706E+01      0.4767522595E+01
          0                 6           2             4    7     1      -0.1517183977E-01       5    8    1        -0.8398067727E+00      0.1364459115E+01
          0                 7           2             4    7     1      -0.4740061567E-02       4    7    1        -0.2619629624E+00      0.4215536922E+00
          0                 8           2             4    7     1      -0.1480943048E-02       4    7    1        -0.8183874985E-01      0.1303748046E+00
          0                 9           2             4    7     1      -0.4627016367E-03       4    7    1        -0.2556849617E-01      0.4034157346E-01
          0                10           2             4    7     1      -0.1445678078E-03       4    7    1        -0.7988382786E-02      0.1248853571E-01
          0                11           1             4    7     1      -0.4516995000E-04       4    7    1        -0.2495860814E-02      0.3867812278E-02

    ------------------------------------------------
       NWT REQUIRED           11 OUTER ITERATIONS 
       AND A TOTAL OF         21 INNER ITERATIONS.
    ------------------------------------------------

 NO OUTPUT CONTROL FOR STRESS PERIOD    9   TIME STEP   28
 
 SOLVING FOR HEAD 
                                                   Max.-Head-Change                         Max.-Flux-Residual
  Residual-Control   Outer-Iter.   Inner-Iter.     Column Row Layer    Maximum-Head-Change  Column Row Layer    Maximum-Flux-Residual          L2-NORM 
          0                 1           2             5    7     1       0.1550051340E+01       5    7    1         0.8296254568E+02      0.1560134323E+03
          0                 2           2             5    8     1       0.4072418617E+00       5    8    1         0.2200834784E+02      0.3934915385E+02
          0                 3           2             5    8     1       0.2385989985E+00       5    8    1         0.1302492857E+02      0.1826453744E+02
          0                 4           2             5    8     1       0.1388999190E+00       5    8    1         0.7618255393E+01      0.9894306550E+01
          0                 5           2             5    8     1       0.8060546490E-01       5    8    1         0.4431387740E+01      0.5664741770E+01
          0                 6           2             5    8     1       0.4670343462E-01       5    8    1         0.2570566774E+01      0.3291677422E+01
          0                 7           2             5    8     1       0.2703948898E-01       5    8    1         0.1489113460E+01      0.1919833989E+01
          0                 8           2             5    8     1       0.1564893377E-01       5    8    1         0.8620559375E+00      0.1120903598E+01
          0                 9           2             5    8     1       0.9055101857E-02       5    8    1         0.4988860622E+00      0.6547673219E+00
          0                10           2             5    8     1       0.5239227296E-02       5    8    1         0.2886691793E+00      0.3826320982E+00
                                                   Max.-Head-Change                         Max.-Flux-Residual
  Residual-Control   Outer-Iter.   Inner-Iter.     Column Row Layer    Maximum-Head-Change  Column Row Layer    Maximum-Flux-Residual          L2-NORM 
          0                11           2             5    8     1       0.3031294316E-02       5    8    1         0.1670206568E+00      0.2236938353E+00
          0                12           2             5    8     1       0.1753827635E-02       5    8    1         0.9663392956E-01      0.1308315911E+00
          0                13           2             5    8     1       0.1014727153E-02       5    8    1         0.5590986025E-01      0.7655327206E-01
          0                14           2             5    8     1       0.5871082494E-03       5    8    1         0.3234829894E-01      0.4481385143E-01
          0                15           1             5    8     1       0.3396997557E-03       5    8    1         0.1871635994E-01      0.2624591810E-01
          0                16           1             5    8     1       0.1965537799E-03       5    8    1         0.1082928262E-01      0.1537853663E-01
          0                17           1             4    7     1       0.1138715469E-03       5    8    1         0.6265954307E-02      0.9015174199E-02
          0                18           1             4    7     1       0.6736186881E-04       4    7    1         0.3641851986E-02      0.5287382349E-02

    ------------------------------------------------
       NWT REQUIRED           18 OUTER ITERATIONS 
       AND A TOTAL OF         32 INNER ITERATIONS.
    ------------------------------------------------

 NO OUTPUT CONTROL FOR STRESS PERIOD    9   TIME STEP   29
 
 SOLVING FOR HEAD 
                                                   Max.-Head-Change                         Max.-Flux-Residual
  Residual-Control   Outer-Iter.   Inner-Iter.     Column Row Layer    Maximum-Head-Change  Column Row Layer    Maximum-Flux-Residual          L2-NORM 
          0                 1           2             4    6     1       0.1894989417E+01       4    6    1         0.1020028646E+03      0.1440065612E+03
          0                 2           2             5    8     1      -0.1626297425E+01       5    8    1        -0.9010443037E+02      0.1906128678E+03
          0                 3           2             5    7     1      -0.8516341778E+00       5    7    1        -0.4681952816E+02      0.8758902806E+02
          0                 4           2             4    8     1      -0.4611542843E+00       4    8    1        -0.2550537921E+02      0.2970320081E+02
          0                 5           2             4    8     1      -0.1828871250E+00       4    8    1        -0.1016946776E+02      0.1083158872E+02
          0                 6           2             4    7     1      -0.1686778031E-01       4    7    1        -0.9414737339E+00      0.1379960541E+01
          0                 7           2             4    7     1      -0.5264306917E-02       4    7    1        -0.2908501835E+00      0.3684483486E+00
          0                 8           2             4    7     1      -0.1643048388E-02       4    7    1        -0.9088323227E-01      0.1149666273E+00
          0                 9           2             4    7     1      -0.5128419038E-03       4    7    1        -0.2836378459E-01      0.3595896969E-01
          0                10           2             4    7     1      -0.1600809843E-03       4    7    1        -0.8853015402E-02      0.1124746077E-01
          0                11           1             4    7     1      -0.4997101326E-04       4    7    1        -0.2763377762E-02      0.3518023134E-02

    ------------------------------------------------
       NWT REQUIRED           11 OUTER ITERATIONS 
       AND A TOTAL OF         21 INNER ITERATIONS.
    ------------------------------------------------

 NO OUTPUT CONTROL FOR STRESS PERIOD    9   TIME STEP   30



 STREAM LISTING     PERIOD      9   STEP       30

 LAYER ROW COL. STREAM  RCH.  FLOW INTO     FLOW TO   FLOW OUT OF   OVRLND.     DIRECT     STREAM       STREAM     STREAM     STREAM   STREAMBED  STREAMBED
                SEG.NO.  NO.  STRM. RCH.    AQUIFER    STRM. RCH.    RUNOFF     PRECIP       ET          HEAD       DEPTH      WIDTH   CONDCTNC.   GRADIENT

   1    1    1     1     1    4.5750E+01  3.2289E-01   4.5427E+01  0.000E+00  0.000E+00  0.000E+00  1.09442E+03  1.372E+00  1.641E+01  7.386E-02  1.457E+00
   1    2    2     1     2    4.5427E+01  5.0023E-01   4.4927E+01  0.000E+00  0.000E+00  0.000E+00  1.08943E+03  1.369E+00  1.636E+01  1.145E-01  1.456E+00
   1    3    3     1     3    4.4927E+01  4.2678E-01   4.4500E+01  0.000E+00  0.000E+00  0.000E+00  1.08378E+03  1.366E+00  1.629E+01  9.776E-02  1.455E+00
   1    3    4     1     4    4.4500E+01  3.9314E-01   4.4107E+01  0.000E+00  0.000E+00  0.000E+00  1.07877E+03  1.363E+00  1.624E+01  9.011E-02  1.454E+00
   1    4    5     2     1    4.2107E+01  3.6245E-01   4.1744E+01  0.000E+00  0.000E+00  0.000E+00  1.07358E+03  1.647E+00  1.200E+01  7.800E-02  1.549E+00
   1    5    6     2     2    4.1744E+01  2.7835E-01   4.1466E+01  0.000E+00  0.000E+00  0.000E+00  1.06815E+03  1.639E+00  1.200E+01  6.000E-02  1.546E+00
   1    6    6     2     3    4.1466E+01  2.7796E-01   4.1188E+01  0.000E+00  0.000E+00  0.000E+00  1.06343E+03  1.633E+00  1.200E+01  6.000E-02  1.544E+00
   1    7    6     2     4    4.1188E+01  2.7756E-01   4.0910E+01  0.000E+00  0.000E+00  0.000E+00  1.05870E+03  1.626E+00  1.200E+01  6.000E-02  1.542E+00
   1    8    6     2     5    4.0910E+01  2.7717E-01   4.0633E+01  0.000E+00  0.000E+00  0.000E+00  1.05398E+03  1.619E+00  1.200E+01  6.000E-02  1.540E+00
   1    3    5     3     1    2.0000E+00  2.8252E-01   1.7175E+00  0.000E+00  0.000E+00  0.000E+00  1.07555E+03  1.909E+00  9.636E+00  7.227E-02  1.955E+00
   1    3    6     3     2    1.7175E+00  2.4905E-01   1.4684E+00  0.000E+00  0.000E+00  0.000E+00  1.07264E+03  1.727E+00  8.909E+00  6.682E-02  1.864E+00
   1    3    7     3     3    1.4684E+00  1.9718E-01   1.2712E+00  0.000E+00  0.000E+00  0.000E+00  1.06987E+03  1.555E+00  8.218E+00  5.547E-02  1.777E+00
   1    4    8     3     4    1.2712E+00  2.2567E-01   1.0456E+00  0.000E+00  0.000E+00  0.000E+00  1.06682E+03  1.364E+00  7.455E+00  6.709E-02  1.682E+00
   1    5    8     3     5    1.0456E+00  1.5790E-01   8.8768E-01  0.000E+00  0.000E+00  0.000E+00  1.06362E+03  1.164E+00  6.655E+00  4.991E-02  1.582E+00
   1    6    8     3     6    8.8768E-01  5.5980E-02   8.3170E-01  0.000E+00  0.000E+00  0.000E+00  1.06158E+03  1.036E+00  6.145E+00  1.844E-02  1.518E+00
   1    5   10     4     1    1.0000E+01  9.0919E-02   9.9091E+00  0.000E+00  0.000E+00  0.000E+00  1.07836E+03  6.368E-01  1.000E+01  2.500E-02  1.212E+00
   1    5    9     4     2    9.9091E+00  1.8158E-01   9.7275E+00  0.000E+00  0.000E+00  0.000E+00  1.07154E+03  6.315E-01  1.000E+01  5.000E-02  1.211E+00
   1    6    8     4     3    9.7275E+00  1.2689E-01   9.6006E+00  0.000E+00  0.000E+00  0.000E+00  1.06381E+03  6.256E-01  1.000E+01  3.500E-02  1.209E+00
   1    6    8     5     1    1.0432E+01  2.2686E-01   1.0205E+01  0.000E+00  0.000E+00  0.000E+00  1.05868E+03  6.790E-01  1.542E+01  6.166E-02  1.226E+00
   1    7    7     5     2    1.0205E+01  2.7894E-01   9.9265E+00  0.000E+00  0.000E+00  0.000E+00  1.05417E+03  6.732E-01  1.519E+01  7.594E-02  1.224E+00
   1    8    7     5     3    9.9265E+00  1.9221E-01   9.7343E+00  0.000E+00  0.000E+00  0.000E+00  1.04992E+03  6.676E-01  1.497E+01  5.241E-02  1.223E+00
   1    8    6     5     4    9.7343E+00  1.3577E-01   9.5985E+00  0.000E+00  0.000E+00  0.000E+00  1.04691E+03  6.637E-01  1.482E+01  3.706E-02  1.221E+00
   1    9    6     6     1    9.5985E+00  2.2097E-01   9.3776E+00  0.000E+00  0.000E+00  0.000E+00  1.04341E+03  6.828E-01  1.200E+01  6.000E-02  1.228E+00
   1   10    7     6     2    9.3776E+00  2.2039E-01   9.1572E+00  0.000E+00  0.000E+00  0.000E+00  1.03885E+03  6.732E-01  1.200E+01  6.000E-02  1.224E+00
   1   11    7     6     3    9.1572E+00  2.1981E-01   8.9374E+00  0.000E+00  0.000E+00  0.000E+00  1.03430E+03  6.636E-01  1.200E+01  6.000E-02  1.221E+00
   1   12    7     6     4    8.9374E+00  2.1923E-01   8.7181E+00  0.000E+00  0.000E+00  0.000E+00  1.02974E+03  6.539E-01  1.200E+01  6.000E-02  1.218E+00
   1   13    7     6     5    8.7181E+00 -1.2192E-01   8.8400E+00  0.000E+00  0.000E+00  0.000E+00  1.02656E+03  6.517E-01  1.200E+01  2.400E-01 -1.693E-01
   1   14    9     7     1    1.5000E+02  1.3359E+00   1.4866E+02  0.000E+00  0.000E+00  0.000E+00  1.03987E+03  2.288E+00  5.529E+01  5.593E-01  7.961E-01
   1   13    8     7     2    1.4866E+02  1.8259E+00   1.4684E+02  0.000E+00  0.000E+00  0.000E+00  1.03478E+03  2.279E+00  5.526E+01  6.148E-01  9.900E-01
   1   13    7     7     3    1.4684E+02  1.4638E+00   1.4537E+02  0.000E+00  0.000E+00  0.000E+00  1.02969E+03  2.271E+00  5.522E+01  5.585E-01  8.737E-01
   1   13    6     8     1    1.5421E+02  8.2544E-01   1.5339E+02  0.000E+00  0.000E+00  0.000E+00  1.02472E+03  2.843E+00  4.123E+01  4.201E-01  6.549E-01
   1   13    5     8     2    1.5339E+02  1.1214E-01   1.5328E+02  0.000E+00  0.000E+00  0.000E+00  1.01847E+03  2.840E+00  4.118E+01  4.197E-01  8.907E-02
   1   13    4     8     3    1.5328E+02 -2.5955E+00   1.5587E+02  0.000E+00  0.000E+00  0.000E+00  1.01222E+03  2.849E+00  4.131E+01  4.209E+00 -2.055E-01
   1   13    3     8     4    1.5587E+02 -3.7533E+00   1.5963E+02  0.000E+00  0.000E+00  0.000E+00  1.00600E+03  2.871E+00  4.162E+01  4.242E+00 -2.950E-01
   1   13    2     8     5    1.5963E+02 -2.6353E+00   1.6226E+02  0.000E+00  0.000E+00  0.000E+00  9.99767E+02  2.892E+00  4.194E+01  4.274E+00 -2.055E-01
   1   13    1     8     6    1.6226E+02 -2.0269E+00   1.6429E+02  0.000E+00  0.000E+00  0.000E+00  9.94783E+02  2.908E+00  4.216E+01  2.578E+00 -2.621E-01
   1    8    6     9     1    4.0633E+01  0.0000E+00   4.0633E+01  0.000E+00  0.000E+00  0.000E+00  1.08401E+03  5.255E+00  4.000E+00  0.000E+00  2.752E+00
   1    8    5     9     2    4.0633E+01  0.0000E+00   4.0633E+01  0.000E+00  0.000E+00  0.000E+00  1.08351E+03  5.255E+00  4.000E+00  0.000E+00  2.752E+00





UNSATURATED ZONE PACKAGE VOLUMETRIC BUDGET FOR  TIME STEP    30 STRESS PERIOD    9
  ------------------------------------------------------------------------------



     CUMULATIVE VOLUMES      L**3       RATES FOR THIS TIME STEP      L**3/T
     ------------------                 ------------------------

           IN:                                      IN:
           ---                                      ---
        INFILTRATION =  2478554430.2018          INFILTRATION =         641.4815

          OUT:                                     OUT:
          ----                                     ----
              UZF ET =   392581123.6677                UZF ET =          49.5675
        UZF RECHARGE =  1180236598.9277          UZF RECHARGE =         119.5421

            IN - OUT =   905736707.6064              IN - OUT =         472.3718

          STORAGE:                                 STORAGE:
          --------                                 --------
      STORAGE CHANGE =   906192414.3875        STORAGE CHANGE =         472.3718

 PERCENT DISCREPANCY IS DIFFERENCE BETWEEN IN-OUT MINUS CHANGE IN STORAGE
 DIVIDED BY THE AVERAGE OF IN AND OUT TIMES 100

 PERCENT DISCREPANCY =          -0.00     PERCENT DISCREPANCY =           0.00






1
  VOLUMETRIC BUDGET FOR AGRICULTURAL FIELDS AT  END OF TIME STEP   30, STRESS PERIOD   9
  ------------------------------------------------------------------------------

     CUMULATIVE VOLUMES      L**3       RATES FOR THIS TIME STEP      L**3/T
     ------------------                 ------------------------

           IN:                                      IN:
           ---                                      ---
               AG WELLS  =  2137517184.0000                 AG WELLS  =         600.0000
      DIVERSION SEGMENTS =   323138080.0000        DIVERSION SEGMENTS =          40.6331
       IRRIGATION PONDS  =           0.0000         IRRIGATION PONDS  =           0.0000
           GW IRRIGATION =           0.0000             GW IRRIGATION =           0.0000
           SW IRRIGATION =           0.0000             SW IRRIGATION =           0.0000
        SYSTEM LOSSES GW =           0.0000          SYSTEM LOSSES GW =           0.0000
        SYSTEM LOSSES SW =           0.0000          SYSTEM LOSSES SW =           0.0000

                TOTAL IN =  2460655360.0000                  TOTAL IN =         640.6331

          OUT:                                     OUT:
          ----                                     ----
               AG WELLS  =           0.0000                 AG WELLS  =           0.0000
      DIVERSION SEGMENTS =           0.0000        DIVERSION SEGMENTS =           0.0000
       IRRIGATION PONDS  =           0.0000         IRRIGATION PONDS  =           0.0000
           GW IRRIGATION =  2137517184.0000             GW IRRIGATION =         600.0000
           SW IRRIGATION =   323144384.0000             SW IRRIGATION =          40.6339
        SYSTEM LOSSES GW =           0.0000          SYSTEM LOSSES GW =           0.0000
        SYSTEM LOSSES SW =           0.0000          SYSTEM LOSSES SW =           0.0000

               TOTAL OUT =  2460661504.0000                 TOTAL OUT =         640.6339

                IN - OUT =       -6144.0000                  IN - OUT =      -7.9346E-04

     PERCENT DISCREPANCY =          -0.00         PERCENT DISCREPANCY =          -0.00



1
  VOLUMETRIC BUDGET FOR ENTIRE MODEL AT END OF TIME STEP   30, STRESS PERIOD   9
  ------------------------------------------------------------------------------

     CUMULATIVE VOLUMES      L**3       RATES FOR THIS TIME STEP      L**3/T
     ------------------                 ------------------------

           IN:                                      IN:
           ---                                      ---
             STORAGE     =  2193928704.0000               STORAGE     =         480.1047
       CONSTANT HEAD     =           0.0000         CONSTANT HEAD     =           0.0000
     HEAD DEP BOUNDS     =     6036460.5000       HEAD DEP BOUNDS     =           0.2858
      STREAM LEAKAGE     =   257662272.0000        STREAM LEAKAGE     =          11.9615
        UZF RECHARGE     =  1180236672.0000          UZF RECHARGE     =         119.5421
               GW ET     =           0.0000                 GW ET     =           0.0000
     SURFACE LEAKAGE     =           0.0000       SURFACE LEAKAGE     =           0.0000
           AG WELLS      =           0.0000             AG WELLS      =           0.0000

                TOTAL IN =  3637863936.0000                  TOTAL IN =         611.8941

          OUT:                                     OUT:
          ----                                     ----
             STORAGE     =  1264361088.0000               STORAGE     =           0.4752
       CONSTANT HEAD     =           0.0000         CONSTANT HEAD     =           0.0000
     HEAD DEP BOUNDS     =     6154992.0000       HEAD DEP BOUNDS     =           0.2876
      STREAM LEAKAGE     =   228624384.0000        STREAM LEAKAGE     =          11.1329
        UZF RECHARGE     =           0.0000          UZF RECHARGE     =           0.0000
               GW ET     =     1207612.8750                 GW ET     =           0.0000
     SURFACE LEAKAGE     =           0.0000       SURFACE LEAKAGE     =           0.0000
           AG WELLS      =  2137517184.0000             AG WELLS      =         600.0000

               TOTAL OUT =  3637865216.0000                 TOTAL OUT =         611.8956

                IN - OUT =       -1280.0000                  IN - OUT =      -1.5259E-03

     PERCENT DISCREPANCY =          -0.00         PERCENT DISCREPANCY =          -0.00






         TIME SUMMARY AT END OF TIME STEP   30 IN STRESS PERIOD    9
                    SECONDS     MINUTES      HOURS       DAYS        YEARS
                    -----------------------------------------------------------
   TIME STEP LENGTH  87667.      1461.1      24.352      1.0147     2.77799E-03
 STRESS PERIOD TIME 2.63000E+06  43833.      730.56      30.440     8.33397E-02
         TOTAL TIME 2.11264E+07 3.52107E+05  5868.4      244.52     0.66945    
1
1
                            STRESS PERIOD NO.   10, LENGTH =   2630000.    
                            -----------------------------------------------

                              NUMBER OF TIME STEPS =    30

                               MULTIPLIER FOR DELT =     1.000

                            INITIAL TIME STEP SIZE =   87666.66    

 REUSING NON-PARAMETER GHB CELLS FROM LAST STRESS PERIOD

      2 GHB CELLS

 REUSING STREAM SEGMENT DATA FROM LAST STRESS PERIOD



            AREAL INFILTRATION RATE
 READING ON UNIT   19 WITH FORMAT: (FREE)              

            1           2           3           4           5           6           7           8           9          10
 ........................................................................................................................
   1   1.0000E-10  2.0000E-10   0.000       0.000       0.000       0.000       0.000       0.000       0.000       0.000    
   2   2.0000E-10  1.0000E-10  2.0000E-10   0.000       0.000      8.0000E-10  8.0000E-10  5.0000E-10   0.000       0.000    
   3    0.000      5.0000E-10  1.0000E-10  1.0000E-10  8.0000E-10  8.0000E-10  5.0000E-10  5.0000E-10   0.000       0.000    
   4   8.0000E-10  5.0000E-10  1.0000E-10  1.0000E-10  1.0000E-10  1.0000E-10  1.0000E-10  1.0000E-10  2.0000E-10   0.000    
   5   8.0000E-10  5.0000E-10  1.0000E-10  1.0000E-10  1.0000E-10  1.0000E-10  1.0000E-10  1.0000E-10  1.0000E-10  1.0000E-10
   6   8.0000E-10  5.0000E-10  5.0000E-10  2.0000E-10  2.0000E-10  1.0000E-10  1.0000E-10  1.0000E-10  1.0000E-10  5.0000E-10
   7   8.0000E-10  5.0000E-10  5.0000E-10  2.0000E-10  2.0000E-10  1.0000E-10  1.0000E-10  2.0000E-10  2.0000E-10   0.000    
   8    0.000      5.0000E-10  5.0000E-10  2.0000E-10  2.0000E-10  1.0000E-10  1.0000E-10  2.0000E-10  5.0000E-10   0.000    
   9    0.000      5.0000E-10  5.0000E-10  2.0000E-10  2.0000E-10  1.0000E-10  1.0000E-10  2.0000E-10  5.0000E-10   0.000    
  10    0.000      5.0000E-10  5.0000E-10  2.0000E-10  2.0000E-10  1.0000E-10  1.0000E-10  2.0000E-10  5.0000E-10  8.0000E-10
  11    0.000      1.0000E-10  1.0000E-10  1.0000E-10  1.0000E-10  1.0000E-10  1.0000E-10  2.0000E-10  5.0000E-10   0.000    
  12   1.0000E-10  1.0000E-10  1.0000E-10  1.0000E-10  1.0000E-10  1.0000E-10  1.0000E-10  1.0000E-10  2.0000E-10   0.000    
  13   1.0000E-10  1.0000E-10  2.0000E-10  2.0000E-10  2.0000E-10  2.0000E-10  2.0000E-10  1.0000E-10  1.0000E-10   0.000    
  14    0.000      2.0000E-10  5.0000E-10  5.0000E-10  5.0000E-10  5.0000E-10  5.0000E-10  2.0000E-10  1.0000E-10   0.000    
  15    0.000       0.000      8.0000E-10  8.0000E-10  8.0000E-10  8.0000E-10   0.000       0.000       0.000       0.000    

                  ET RATE =  7.500000E-08

 USING ET EXTINCTION DEPTH FROM PREVIOUS STRESS PERIOD. CURRENT PERIOD IS:      10

 USING EXTINCTION WATER CONTENT FROM PREVIOUS STRESS PERIOD. CURRENT PERIOD IS:      10

 USING AIR ENTRY PRESSURE FROM PREVIOUS STRESS PERIOD. CURRENT PERIOD IS:      10

 USING ROOT PRESSURE HEAD FROM PREVIOUS STRESS PERIOD. CURRENT PERIOD IS:      10

 USING ROOT ACTIVITY FROM PREVIOUS STRESS PERIOD. CURRENT PERIOD IS:      10

 PROCESSING AG STRESS PERIOD DATA

 READING AG STRESS PERIOD DATA

 READING IRRIGATION SEGMENT

 READING IRRIGATION WELL

 READING SUPPLEMENTAL WELL

 NO IRRPOND OR REUSING IRRPOND DATA FROM LAST STRESS PERIOD

 END PROCESSING AG STRESS PERIOD DATA OPTIONS
 
 SOLVING FOR HEAD 
                                                   Max.-Head-Change                         Max.-Flux-Residual
  Residual-Control   Outer-Iter.   Inner-Iter.     Column Row Layer    Maximum-Head-Change  Column Row Layer    Maximum-Flux-Residual          L2-NORM 
          0                 1           2             5    7     1       0.1541378623E+01       5    6    1         0.8231212617E+02      0.1601437515E+03
          0                 2           2             5    8     1       0.5465744000E+00       5    8    1         0.2947061360E+02      0.5722810918E+02
          0                 3           2             5    8     1       0.3557624629E+00       5    8    1         0.1936308107E+02      0.3208069287E+02
          0                 4           2             5    8     1       0.2075269166E+00       5    8    1         0.1136487702E+02      0.1754694734E+02
          0                 5           2             4    7     1       0.1229747506E+00       5    8    1         0.6622523440E+01      0.1014012193E+02
          0                 6           2             4    7     1       0.7312834758E-01       4    7    1         0.3936791168E+01      0.5944947578E+01
          0                 7           2             4    7     1       0.4345095019E-01       4    7    1         0.2340537323E+01      0.3497781103E+01
          0                 8           2             4    7     1       0.2580863925E-01       4    7    1         0.1390547803E+01      0.2060072559E+01
          0                 9           2             4    7     1       0.1532794637E-01       4    7    1         0.8259132546E+00      0.1213926138E+01
          0                10           2             4    7     1       0.9103414597E-02       4    7    1         0.4905106765E+00      0.7156257803E+00
                                                   Max.-Head-Change                         Max.-Flux-Residual
  Residual-Control   Outer-Iter.   Inner-Iter.     Column Row Layer    Maximum-Head-Change  Column Row Layer    Maximum-Flux-Residual          L2-NORM 
          0                11           2             4    7     1       0.5406910952E-02       4    7    1         0.2913197764E+00      0.4220488931E+00
          0                12           2             4    7     1       0.3211658622E-02       4    7    1         0.1730289821E+00      0.2490145764E+00
          0                13           2             4    7     1       0.1907873264E-02       4    7    1         0.1027789811E+00      0.1469846978E+00
          0                14           2             4    7     1       0.1133473739E-02       4    7    1         0.6105627595E-01      0.8679666628E-01
          0                15           2             4    7     1       0.6734658755E-03       4    7    1         0.3627423915E-01      0.5127604369E-01
          0                16           2             4    7     1       0.4001857642E-03       4    7    1         0.2155303986E-01      0.3030419444E-01
          0                17           2             4    7     1       0.2378203289E-03       4    7    1         0.1280738913E-01      0.1791692687E-01
          0                18           1             4    7     1       0.1413438292E-03       4    7    1         0.7611213103E-02      0.1059722900E-01
          0                19           1             4    7     1       0.8401260321E-04       4    7    1         0.4523635286E-02      0.6270243712E-02

    ------------------------------------------------
       NWT REQUIRED           19 OUTER ITERATIONS 
       AND A TOTAL OF         36 INNER ITERATIONS.
    ------------------------------------------------

 NO OUTPUT CONTROL FOR STRESS PERIOD   10   TIME STEP    1
 
 SOLVING FOR HEAD 
                                                   Max.-Head-Change                         Max.-Flux-Residual
  Residual-Control   Outer-Iter.   Inner-Iter.     Column Row Layer    Maximum-Head-Change  Column Row Layer    Maximum-Flux-Residual          L2-NORM 
          0                 1           2             4    6     1       0.1519938458E+01       4    6    1         0.8167593572E+02      0.1308057412E+03
          0                 2           2             4    8     1       0.7230238706E+00       4    8    1         0.3896215738E+02      0.6179443541E+02
          0                 3           2             4    8     1       0.4281186773E+00       4    8    1         0.2313618254E+02      0.3393459369E+02
          0                 4           2             4    8     1       0.2530293434E+00       4    8    1         0.1369308987E+02      0.1964302554E+02
          0                 5           2             4    8     1       0.1494092235E+00       4    8    1         0.8091160838E+01      0.1152964785E+02
          0                 6           2             4    8     1       0.8818283415E-01       4    8    1         0.4777152381E+01      0.6789398643E+01
          0                 7           2             4    8     1       0.5203437275E-01       4    8    1         0.2819368880E+01      0.4000736863E+01
          0                 8           2             4    8     1       0.2787083454E-01       4    8    1         0.1510059358E+01      0.2252037357E+01
          0                 9           2             5    7     1       0.1381000853E-01       5    7    1         0.7513430749E+00      0.1076611951E+01
          0                10           2             5    7     1       0.8107631194E-02       5    7    1         0.4412135364E+00      0.5924780319E+00
                                                   Max.-Head-Change                         Max.-Flux-Residual
  Residual-Control   Outer-Iter.   Inner-Iter.     Column Row Layer    Maximum-Head-Change  Column Row Layer    Maximum-Flux-Residual          L2-NORM 
          0                11           2             5    7     1       0.4758869257E-02       5    7    1         0.2590181786E+00      0.3424298318E+00
          0                12           2             5    7     1       0.2792970148E-02       5    7    1         0.1520295283E+00      0.2005503800E+00
          0                13           2             5    7     1       0.1639131649E-02       5    7    1         0.8922458620E-01      0.1178450776E+00
          0                14           2             5    7     1       0.9619830853E-03       5    7    1         0.5236373085E-01      0.6930279756E-01
          0                15           2             5    7     1       0.5645984427E-03       5    7    1         0.3073162278E-01      0.4076401373E-01
          0                16           2             5    7     1       0.3313885947E-03       5    7    1         0.1803685027E-01      0.2397875476E-01
          0                17           2             5    7     1       0.1945201736E-03       5    7    1         0.1058674501E-01      0.1410538878E-01
          0                18           2             5    7     1       0.1141885340E-03       5    7    1         0.6214323604E-02      0.8297531975E-02
          0                19           1             5    7     1       0.6703652687E-04       5    7    1         0.3648011677E-02      0.4881097663E-02

    ------------------------------------------------
       NWT REQUIRED           19 OUTER ITERATIONS 
       AND A TOTAL OF         37 INNER ITERATIONS.
    ------------------------------------------------

 NO OUTPUT CONTROL FOR STRESS PERIOD   10   TIME STEP    2
 
 SOLVING FOR HEAD 
                                                   Max.-Head-Change                         Max.-Flux-Residual
  Residual-Control   Outer-Iter.   Inner-Iter.     Column Row Layer    Maximum-Head-Change  Column Row Layer    Maximum-Flux-Residual          L2-NORM 
          0                 1           2             4    7     1       0.1937261193E+01       4    7    1         0.1038752398E+03      0.1715659712E+03
          0                 2           2             4    6     1       0.8293258953E+00       4    6    1         0.4442550142E+02      0.7283804822E+02
          0                 3           2             4    6     1       0.4915608494E+00       4    6    1         0.2656490043E+02      0.3159142114E+02
          0                 4           2             4    6     1       0.1567795400E+00       4    6    1         0.8475063504E+01      0.1000239863E+02
          0                 5           2             4    6     1       0.4565922303E-01       4    6    1         0.2466682345E+01      0.3067497271E+01
          0                 6           2             4    6     1       0.1330972269E-01       4    6    1         0.7185382088E+00      0.1046294018E+01
          0                 7           2             4    8     1       0.6668443129E-02       4    8    1         0.3593081078E+00      0.4402123978E+00
          0                 8           2             4    8     1       0.3947596668E-02       4    8    1         0.2133945138E+00      0.2266271927E+00
          0                 9           2             4    8     1       0.2331879456E-02       4    8    1         0.1262566150E+00      0.1284046572E+00
          0                10           2             4    8     1       0.1375986096E-02       4    8    1         0.7456061915E-01      0.7493565009E-01
                                                   Max.-Head-Change                         Max.-Flux-Residual
  Residual-Control   Outer-Iter.   Inner-Iter.     Column Row Layer    Maximum-Head-Change  Column Row Layer    Maximum-Flux-Residual          L2-NORM 
          0                11           2             4    8     1       0.8115020829E-03       4    8    1         0.4399047294E-01      0.4406773613E-01
          0                12           2             4    8     1       0.4784637057E-03       4    8    1         0.2594208187E-01      0.2596291803E-01
          0                13           2             4    8     1       0.2820656119E-03       4    8    1         0.1529499968E-01      0.1530261012E-01
          0                14           2             4    8     1       0.1662731397E-03       4    8    1         0.9016609134E-02      0.9020103046E-02
          0                15           1             4    8     1       0.9801203588E-04       4    8    1         0.5315100787E-02      0.5316924423E-02

    ------------------------------------------------
       NWT REQUIRED           15 OUTER ITERATIONS 
       AND A TOTAL OF         29 INNER ITERATIONS.
    ------------------------------------------------

 NO OUTPUT CONTROL FOR STRESS PERIOD   10   TIME STEP    3
 
 SOLVING FOR HEAD 
                                                   Max.-Head-Change                         Max.-Flux-Residual
  Residual-Control   Outer-Iter.   Inner-Iter.     Column Row Layer    Maximum-Head-Change  Column Row Layer    Maximum-Flux-Residual          L2-NORM 
          0                 1           2             4    8     1       0.1977701679E+01       4    8    1         0.1062016857E+03      0.1797721247E+03
          0                 2           2             5    6     1       0.8410047945E+00       5    6    1         0.4565787228E+02      0.7684595355E+02
          0                 3           2             4    7     1       0.3198631082E+00       4    7    1         0.1702666708E+02      0.2989142194E+02
          0                 4           2             4    7     1       0.1910814601E+00       4    7    1         0.1025666364E+02      0.1467001997E+02
          0                 5           2             4    7     1       0.1135468062E+00       4    7    1         0.6118700751E+01      0.8185547188E+01
          0                 6           2             4    7     1       0.6730754472E-01       4    7    1         0.3633562454E+01      0.4758481127E+01
          0                 7           2             4    7     1       0.3985433781E-01       4    7    1         0.2153229017E+01      0.2795232270E+01
          0                 8           2             4    7     1       0.2358828134E-01       4    7    1         0.1274806298E+01      0.1646245733E+01
          0                 9           2             4    7     1       0.1395932590E-01       4    7    1         0.7544711609E+00      0.9703495481E+00
          0                10           2             4    7     1       0.8261273996E-02       4    7    1         0.4464839101E+00      0.5722206225E+00
                                                   Max.-Head-Change                         Max.-Flux-Residual
  Residual-Control   Outer-Iter.   Inner-Iter.     Column Row Layer    Maximum-Head-Change  Column Row Layer    Maximum-Flux-Residual          L2-NORM 
          0                11           2             4    7     1       0.4889631052E-02       4    7    1         0.2642358576E+00      0.3375801387E+00
          0                12           2             4    7     1       0.2894453832E-02       4    7    1         0.1563969032E+00      0.1992359494E+00
          0                13           2             4    7     1       0.1713662453E-02       4    7    1         0.9258227721E-01      0.1176350024E+00
          0                14           2             4    7     1       0.1014739632E-02       4    7    1         0.5481462986E-01      0.6948358635E-01
          0                15           2             4    7     1       0.6009733687E-03       4    7    1         0.3245907137E-01      0.4105838579E-01
          0                16           2             4    7     1       0.3559809003E-03       4    7    1         0.1922414357E-01      0.2427122583E-01
          0                17           1             4    7     1       0.2108959110E-03       4    7    1         0.1138750809E-01      0.1435315544E-01
          0                18           1             4    7     1       0.1249621566E-03       4    7    1         0.6746526812E-02      0.8491104991E-02
          0                19           1             4    7     1       0.7405536769E-04       4    7    1         0.3997610977E-02      0.5025014214E-02

    ------------------------------------------------
       NWT REQUIRED           19 OUTER ITERATIONS 
       AND A TOTAL OF         35 INNER ITERATIONS.
    ------------------------------------------------

 NO OUTPUT CONTROL FOR STRESS PERIOD   10   TIME STEP    4
 
 SOLVING FOR HEAD 
                                                   Max.-Head-Change                         Max.-Flux-Residual
  Residual-Control   Outer-Iter.   Inner-Iter.     Column Row Layer    Maximum-Head-Change  Column Row Layer    Maximum-Flux-Residual          L2-NORM 
          0                 1           2             4    6     1       0.1621500426E+01       4    6    1         0.8748868940E+02      0.1233217030E+03
          0                 2           2             4    7     1      -0.1630251906E+01       5    8    1        -0.8944875304E+02      0.1982986377E+03
          0                 3           2             5    7     1      -0.8613016381E+00       5    7    1        -0.4747225232E+02      0.8604595448E+02
          0                 4           2             4    8     1      -0.4738895519E+00       4    8    1        -0.2618152621E+02      0.3208312039E+02
          0                 5           2             4    8     1      -0.1773865616E+00       4    8    1        -0.9820761028E+01      0.1083756961E+02
          0                 6           2             5    8     1      -0.1635821940E-01       5    8    1        -0.9371498109E+00      0.1395412391E+01
          0                 7           2             5    8     1      -0.4955155054E-02       5    8    1        -0.2804261499E+00      0.3638207066E+00
          0                 8           2             5    8     1      -0.1500954866E-02       5    8    1        -0.8507309844E-01      0.1105691746E+00
          0                 9           2             5    8     1      -0.4546408484E-03       5    8    1        -0.2576681851E-01      0.3367773338E-01
          0                10           2             5    8     1      -0.1377082312E-03       5    8    1        -0.7804575275E-02      0.1025890041E-01
          0                11           1             5    8     1      -0.4171017737E-04       5    8    1        -0.2363889824E-02      0.3125273397E-02

    ------------------------------------------------
       NWT REQUIRED           11 OUTER ITERATIONS 
       AND A TOTAL OF         21 INNER ITERATIONS.
    ------------------------------------------------

 NO OUTPUT CONTROL FOR STRESS PERIOD   10   TIME STEP    5
 
 SOLVING FOR HEAD 
                                                   Max.-Head-Change                         Max.-Flux-Residual
  Residual-Control   Outer-Iter.   Inner-Iter.     Column Row Layer    Maximum-Head-Change  Column Row Layer    Maximum-Flux-Residual          L2-NORM 
          0                 1           2             5    7     1       0.1378087953E+01       5    7    1         0.7364497780E+02      0.1391836154E+03
          0                 2           2             4    7     1       0.5622179961E+00       4    7    1         0.2990472660E+02      0.5115436723E+02
          0                 3           2             4    7     1       0.3718779283E+00       4    7    1         0.1990503106E+02      0.2900707256E+02
          0                 4           2             4    7     1       0.2214413871E+00       4    7    1         0.1191355958E+02      0.1585278973E+02
          0                 5           2             4    7     1       0.1314360515E+00       4    7    1         0.7088138367E+01      0.9175630122E+01
          0                 6           2             4    7     1       0.7789887728E-01       4    7    1         0.4205483309E+01      0.5391526222E+01
          0                 7           2             4    7     1       0.4613989609E-01       4    7    1         0.2492039356E+01      0.3179582413E+01
          0                 8           2             4    7     1       0.2732301042E-01       4    7    1         0.1475938174E+01      0.1877010063E+01
          0                 9           2             4    7     1       0.1617979064E-01       4    7    1         0.8739971739E+00      0.1108574060E+01
          0                10           2             4    7     1       0.9581882736E-02       4    7    1         0.5175531511E+00      0.6549756810E+00
                                                   Max.-Head-Change                         Max.-Flux-Residual
  Residual-Control   Outer-Iter.   Inner-Iter.     Column Row Layer    Maximum-Head-Change  Column Row Layer    Maximum-Flux-Residual          L2-NORM 
          0                11           2             4    7     1       0.5675208448E-02       4    7    1         0.3065057169E+00      0.3871196627E+00
          0                12           2             4    7     1       0.3361820969E-02       4    7    1         0.1815421993E+00      0.2288893317E+00
          0                13           2             4    7     1       0.1991740478E-02       4    7    1         0.1075423351E+00      0.1353832718E+00
          0                14           2             4    7     1       0.1180204868E-02       4    7    1         0.6371580165E-01      0.8010520285E-01
          0                15           2             4    7     1       0.6994366558E-03       4    7    1         0.3775560452E-01      0.4741423717E-01
          0                16           2             4    7     1       0.4145767711E-03       4    7    1         0.2237597619E-01      0.2807402029E-01
          0                17           2             4    7     1       0.2457684301E-03       4    7    1         0.1326319092E-01      0.1662813046E-01
          0                18           1             4    7     1       0.1457171310E-03       4    7    1         0.7862822112E-02      0.9851905582E-02
          0                19           1             4    7     1       0.8640866276E-04       4    7    1         0.4661998091E-02      0.5838886603E-02

    ------------------------------------------------
       NWT REQUIRED           19 OUTER ITERATIONS 
       AND A TOTAL OF         36 INNER ITERATIONS.
    ------------------------------------------------

 NO OUTPUT CONTROL FOR STRESS PERIOD   10   TIME STEP    6
 
 SOLVING FOR HEAD 
                                                   Max.-Head-Change                         Max.-Flux-Residual
  Residual-Control   Outer-Iter.   Inner-Iter.     Column Row Layer    Maximum-Head-Change  Column Row Layer    Maximum-Flux-Residual          L2-NORM 
          0                 1           2             4    6     1       0.1462070479E+01       4    6    1         0.7896816421E+02      0.1179315414E+03
          0                 2           2             4    8     1       0.6314541599E+00       4    8    1         0.3402708210E+02      0.5262986155E+02
          0                 3           2             4    8     1       0.3736927094E+00       4    8    1         0.2020505739E+02      0.2814703784E+02
          0                 4           2             4    8     1       0.2206418002E+00       4    8    1         0.1195096598E+02      0.1614347468E+02
          0                 5           2             4    8     1       0.1301267264E+00       4    8    1         0.7054334941E+01      0.9435289912E+01
          0                 6           2             4    8     1       0.7670116526E-01       4    8    1         0.4159847257E+01      0.5539367958E+01
          0                 7           2             4    8     1       0.4519764410E-01       4    8    1         0.2451799117E+01      0.3254682306E+01
          0                 8           2             4    8     1       0.2662977165E-01       4    8    1         0.1444724144E+01      0.1912708160E+01
          0                 9           2             4    8     1       0.1568867811E-01       4    8    1         0.8511960520E+00      0.1124124490E+01
          0                10           2             4    8     1       0.9242452005E-02       4    8    1         0.5014698991E+00      0.6606885643E+00
                                                   Max.-Head-Change                         Max.-Flux-Residual
  Residual-Control   Outer-Iter.   Inner-Iter.     Column Row Layer    Maximum-Head-Change  Column Row Layer    Maximum-Flux-Residual          L2-NORM 
          0                11           2             4    8     1       0.5444742469E-02       4    8    1         0.2954225922E+00      0.3883261775E+00
          0                12           2             4    8     1       0.3207454284E-02       4    8    1         0.1740334065E+00      0.2282523269E+00
          0                13           2             4    8     1       0.1889463451E-02       4    8    1         0.1025214927E+00      0.1341691630E+00
          0                14           2             4    8     1       0.1113044163E-02       4    8    1         0.6039379259E-01      0.7886944295E-01
          0                15           2             4    8     1       0.6556660813E-03       4    8    1         0.3557670026E-01      0.4636418820E-01
          0                16           2             4    8     1       0.3862333513E-03       4    8    1         0.2095730822E-01      0.2725671248E-01
          0                17           2             4    8     1       0.2275169506E-03       4    8    1         0.1234531288E-01      0.1602434441E-01
          0                18           2             4    8     1       0.1340216046E-03       4    8    1         0.7272197306E-02      0.9421111075E-02
          0                19           1             4    8     1       0.7894654801E-04       4    8    1         0.4283771441E-02      0.5539086446E-02

    ------------------------------------------------
       NWT REQUIRED           19 OUTER ITERATIONS 
       AND A TOTAL OF         37 INNER ITERATIONS.
    ------------------------------------------------

 NO OUTPUT CONTROL FOR STRESS PERIOD   10   TIME STEP    7
 
 SOLVING FOR HEAD 
                                                   Max.-Head-Change                         Max.-Flux-Residual
  Residual-Control   Outer-Iter.   Inner-Iter.     Column Row Layer    Maximum-Head-Change  Column Row Layer    Maximum-Flux-Residual          L2-NORM 
          0                 1           2             4    7     1       0.1969976198E+01       4    7    1         0.1059359056E+03      0.1392718760E+03
          0                 2           2             4    6     1       0.7050157682E+00       4    6    1         0.3769473725E+02      0.5645256501E+02
          0                 3           2             4    6     1       0.4181332959E+00       4    6    1         0.2258894319E+02      0.2579938307E+02
          0                 4           2             4    6     1       0.2462907309E+00       4    6    1         0.1337380388E+02      0.1389898553E+02
          0                 5           2             4    6     1       0.1445893612E+00       4    6    1         0.7870834118E+01      0.7961595848E+01
          0                 6           2             4    6     1       0.4818724671E-01       4    6    1         0.2622819501E+01      0.2654308377E+01
          0                 7           2             4    6     1       0.1390348724E-01       4    6    1         0.7563211408E+00      0.7688818395E+00
          0                 8           2             4    6     1       0.4014753175E-02       4    6    1         0.2182680229E+00      0.2230610281E+00
          0                 9           2             4    6     1       0.1160195235E-02       4    6    1         0.6303962096E-01      0.6480679971E-01
          0                10           2             4    6     1       0.3355329819E-03       4    6    1         0.1822100325E-01      0.1885509802E-01
          0                11           1             4    6     1       0.9711053901E-04       4    6    1         0.5270616552E-02      0.5493217212E-02

    ------------------------------------------------
       NWT REQUIRED           11 OUTER ITERATIONS 
       AND A TOTAL OF         21 INNER ITERATIONS.
    ------------------------------------------------

 NO OUTPUT CONTROL FOR STRESS PERIOD   10   TIME STEP    8
 
 SOLVING FOR HEAD 
                                                   Max.-Head-Change                         Max.-Flux-Residual
  Residual-Control   Outer-Iter.   Inner-Iter.     Column Row Layer    Maximum-Head-Change  Column Row Layer    Maximum-Flux-Residual          L2-NORM 
          0                 1           2             4    5     1       0.1395249418E+00       4    5    1         0.7587743669E+01      0.1788280601E+02
          0                 2           2             4    6     1      -0.1899822710E-01       4    6    1        -0.1021485909E+01      0.2378081002E+01
          0                 3           2             4    7     1       0.4544579443E-02       4    7    1         0.2486002044E+00      0.3444641802E+00
          0                 4           2             4    7     1       0.1290725124E-02       4    7    1         0.7115517066E-01      0.8415068504E-01
          0                 5           2             4    7     1       0.3667140110E-03       4    7    1         0.2017504401E-01      0.2368553175E-01
          0                 6           1             4    7     1       0.1042254542E-03       4    7    1         0.5733697609E-02      0.6729421327E-02
          0                 7           1             4    7     1       0.2963256578E-04       4    7    1         0.1629730271E-02      0.1912738381E-02

    ------------------------------------------------
       NWT REQUIRED            7 OUTER ITERATIONS 
       AND A TOTAL OF         12 INNER ITERATIONS.
    ------------------------------------------------

 NO OUTPUT CONTROL FOR STRESS PERIOD   10   TIME STEP    9
 
 SOLVING FOR HEAD 
                                                   Max.-Head-Change                         Max.-Flux-Residual
  Residual-Control   Outer-Iter.   Inner-Iter.     Column Row Layer    Maximum-Head-Change  Column Row Layer    Maximum-Flux-Residual          L2-NORM 
          0                 1           2             4    5     1       0.1328071241E+00       4    5    1         0.7229059878E+01      0.1725660079E+02
          0                 2           2             4    8     1      -0.1897311885E+01       4    6    1        -0.1003687000E+03      0.2451517733E+03
          0                 3           2             4    6     1       0.1834351956E+00       4    6    1         0.1007128719E+02      0.2138638395E+02
          0                 4           2             4    6     1      -0.1249330449E-01       4    6    1        -0.7071092201E+00      0.1483433618E+01
          0                 5           2             4    6     1       0.4971095464E-03       4    6    1         0.2899873569E-01      0.6075998855E-01
          0                 6           1             4    6     1      -0.6129602813E-05       4    6    1        -0.3684712985E-03      0.8291247819E-03

    ------------------------------------------------
       NWT REQUIRED            6 OUTER ITERATIONS 
       AND A TOTAL OF         11 INNER ITERATIONS.
    ------------------------------------------------

 NO OUTPUT CONTROL FOR STRESS PERIOD   10   TIME STEP   10
 
 SOLVING FOR HEAD 
                                                   Max.-Head-Change                         Max.-Flux-Residual
  Residual-Control   Outer-Iter.   Inner-Iter.     Column Row Layer    Maximum-Head-Change  Column Row Layer    Maximum-Flux-Residual          L2-NORM 
          0                 1           2             4    5     1       0.1004417836E+00       4    5    1         0.5472348593E+01      0.1187667497E+02
          0                 2           2             4    7     1      -0.3794023336E-01       4    7    1        -0.2049477735E+01      0.4578267575E+01
          0                 3           2             5    7     1       0.3792972278E-01       5    7    1         0.2061319751E+01      0.5001516270E+01
          0                 4           2             5    7     1      -0.2582925575E-02       5    7    1        -0.1462228881E+00      0.3147945482E+00
          0                 5           2             5    7     1       0.1027766146E-03       5    7    1         0.6056949354E-02      0.1243229947E-01
          0                 6           1             7   13     1      -0.2175073180E-05       7   13    1        -0.1282143776E-03      0.2020135810E-03

    ------------------------------------------------
       NWT REQUIRED            6 OUTER ITERATIONS 
       AND A TOTAL OF         11 INNER ITERATIONS.
    ------------------------------------------------

 NO OUTPUT CONTROL FOR STRESS PERIOD   10   TIME STEP   11
 
 SOLVING FOR HEAD 
                                                   Max.-Head-Change                         Max.-Flux-Residual
  Residual-Control   Outer-Iter.   Inner-Iter.     Column Row Layer    Maximum-Head-Change  Column Row Layer    Maximum-Flux-Residual          L2-NORM 
          0                 1           2             4    5     1       0.9581854086E-01       4    5    1         0.5218821458E+01      0.1131735905E+02
          0                 2           2             4    5     1      -0.9320323479E-02       4    5    1        -0.5218676371E+00      0.1136150927E+01
          0                 3           2             4    5     1       0.6346815067E-03       4    5    1         0.3653088763E-01      0.7951871709E-01
          0                 4           1             4    5     1      -0.2525456748E-04       4    5    1        -0.1494114734E-02      0.3251622912E-02

    ------------------------------------------------
       NWT REQUIRED            4 OUTER ITERATIONS 
       AND A TOTAL OF          7 INNER ITERATIONS.
    ------------------------------------------------

 NO OUTPUT CONTROL FOR STRESS PERIOD   10   TIME STEP   12
 
 SOLVING FOR HEAD 
                                                   Max.-Head-Change                         Max.-Flux-Residual
  Residual-Control   Outer-Iter.   Inner-Iter.     Column Row Layer    Maximum-Head-Change  Column Row Layer    Maximum-Flux-Residual          L2-NORM 
          0                 1           2             4    5     1       0.9143777583E-01       4    5    1         0.4978604696E+01      0.1079078221E+02
          0                 2           2             4    5     1      -0.8894224527E-02       4    5    1        -0.4978480533E+00      0.1078945955E+01
          0                 3           2             4    5     1       0.6056654546E-03       4    5    1         0.3484949626E-01      0.7551679094E-01
          0                 4           1             4    5     1      -0.2409999376E-04       4    5    1        -0.1425345839E-02      0.3088067166E-02

    ------------------------------------------------
       NWT REQUIRED            4 OUTER ITERATIONS 
       AND A TOTAL OF          7 INNER ITERATIONS.
    ------------------------------------------------

 NO OUTPUT CONTROL FOR STRESS PERIOD   10   TIME STEP   13
 
 SOLVING FOR HEAD 
                                                   Max.-Head-Change                         Max.-Flux-Residual
  Residual-Control   Outer-Iter.   Inner-Iter.     Column Row Layer    Maximum-Head-Change  Column Row Layer    Maximum-Flux-Residual          L2-NORM 
          0                 1           2             4    5     1       0.8728655059E-01       4    5    1         0.4750988568E+01      0.1029972792E+02
          0                 2           2             4    5     1      -0.8489813945E-02       4    5    1        -0.4750882696E+00      0.1028158082E+01
          0                 3           2             4    5     1       0.5781263001E-03       4    5    1         0.3325629314E-01      0.7196260907E-01
          0                 4           1             4    5     1      -0.2300418670E-04       4    5    1        -0.1360183817E-02      0.2942731453E-02

    ------------------------------------------------
       NWT REQUIRED            4 OUTER ITERATIONS 
       AND A TOTAL OF          7 INNER ITERATIONS.
    ------------------------------------------------

 NO OUTPUT CONTROL FOR STRESS PERIOD   10   TIME STEP   14
 
 SOLVING FOR HEAD 
                                                   Max.-Head-Change                         Max.-Flux-Residual
  Residual-Control   Outer-Iter.   Inner-Iter.     Column Row Layer    Maximum-Head-Change  Column Row Layer    Maximum-Flux-Residual          L2-NORM 
          0                 1           2             4    5     1       0.8335570201E-01       4    5    1         0.4535329757E+01      0.9842519452E+01
          0                 2           2             4    7     1      -0.1241790705E-01       4    7    1        -0.6748434057E+00      0.1573193656E+01
          0                 3           2             4    8     1       0.1029295681E-01       4    8    1         0.5589882374E+00      0.1348136240E+01
          0                 4           2             4    8     1      -0.3410016661E-03       4    8    1        -0.1952688719E-01      0.3236496586E-01
          0                 5           2             4    8     1      -0.9551406854E-03       4    7    1        -0.5409480097E-01      0.1316578390E+00
          0                 6           2             4    8     1       0.1303506956E-02       4    8    1         0.7485125935E-01      0.1821941057E+00
          0                 7           1             4    7     1       0.1847648871E-04       4    7    1         0.1136271333E-02      0.2819932806E-02

    ------------------------------------------------
       NWT REQUIRED            7 OUTER ITERATIONS 
       AND A TOTAL OF         13 INNER ITERATIONS.
    ------------------------------------------------

 NO OUTPUT CONTROL FOR STRESS PERIOD   10   TIME STEP   15
 
 SOLVING FOR HEAD 
                                                   Max.-Head-Change                         Max.-Flux-Residual
  Residual-Control   Outer-Iter.   Inner-Iter.     Column Row Layer    Maximum-Head-Change  Column Row Layer    Maximum-Flux-Residual          L2-NORM 
          0                 1           2             4    5     1       0.7963135374E-01       4    5    1         0.4331058087E+01      0.9420500099E+01
          0                 2           2             4    7     1      -0.1778562965E-01       4    7    1        -0.9623557494E+00      0.2188150201E+01
          0                 3           2             4    8     1       0.1636332323E-01       4    8    1         0.8889990996E+00      0.2146474772E+01
          0                 4           2             4    8     1      -0.2167489580E+00       4    8    1        -0.1210242513E+02      0.2960917247E+02
          0                 5           2             4    8     1       0.6695941629E-01       4    8    1         0.3852936881E+01      0.9030377961E+01
          0                 6           2             7   13     1      -0.1870381462E-02       7   13    1        -0.1101368026E+00      0.1691885680E+00
          0                 7           1             7   13     1       0.2302177487E-04       7   13    1         0.1393583724E-02      0.2347309572E-02

    ------------------------------------------------
       NWT REQUIRED            7 OUTER ITERATIONS 
       AND A TOTAL OF         13 INNER ITERATIONS.
    ------------------------------------------------

 NO OUTPUT CONTROL FOR STRESS PERIOD   10   TIME STEP   16
 
 SOLVING FOR HEAD 
                                                   Max.-Head-Change                         Max.-Flux-Residual
  Residual-Control   Outer-Iter.   Inner-Iter.     Column Row Layer    Maximum-Head-Change  Column Row Layer    Maximum-Flux-Residual          L2-NORM 
          0                 1           2             4    5     1       0.7386269493E-01       4    5    1         0.4014976323E+01      0.8704406094E+01
          0                 2           2             4    5     1      -0.7184749652E-02       4    5    1        -0.4014921430E+00      0.8762271350E+00
          0                 3           2             4    5     1       0.4892555634E-03       4    5    1         0.2810451410E-01      0.6132541317E-01
          0                 4           1             4    5     1      -0.1946794137E-04       4    5    1        -0.1149475990E-02      0.2507557367E-02

    ------------------------------------------------
       NWT REQUIRED            4 OUTER ITERATIONS 
       AND A TOTAL OF          7 INNER ITERATIONS.
    ------------------------------------------------

 NO OUTPUT CONTROL FOR STRESS PERIOD   10   TIME STEP   17
 
 SOLVING FOR HEAD 
                                                   Max.-Head-Change                         Max.-Flux-Residual
  Residual-Control   Outer-Iter.   Inner-Iter.     Column Row Layer    Maximum-Head-Change  Column Row Layer    Maximum-Flux-Residual          L2-NORM 
          0                 1           2             4    5     1       0.7063259772E-01       4    5    1         0.3837810500E+01      0.8360924025E+01
          0                 2           2             4    5     1      -0.6870562647E-02       4    5    1        -0.3837765100E+00      0.8360036153E+00
          0                 3           2             4    5     1       0.4678604622E-03       4    5    1         0.2686441027E-01      0.5851216259E-01
          0                 4           1             4    5     1      -0.1861661156E-04       4    5    1        -0.1098755712E-02      0.2392675443E-02

    ------------------------------------------------
       NWT REQUIRED            4 OUTER ITERATIONS 
       AND A TOTAL OF          7 INNER ITERATIONS.
    ------------------------------------------------

 NO OUTPUT CONTROL FOR STRESS PERIOD   10   TIME STEP   18
 
 SOLVING FOR HEAD 
                                                   Max.-Head-Change                         Max.-Flux-Residual
  Residual-Control   Outer-Iter.   Inner-Iter.     Column Row Layer    Maximum-Head-Change  Column Row Layer    Maximum-Flux-Residual          L2-NORM 
          0                 1           2             4    5     1       0.6757223263E-01       4    5    1         0.3669980204E+01      0.8039992616E+01
          0                 2           2             4    5     1      -0.6573010124E-02       4    5    1        -0.3670039188E+00      0.8039287220E+00
          0                 3           2             4    5     1       0.4475954076E-03       4    5    1         0.2569013838E-01      0.5626771674E-01
          0                 4           1             4    5     1      -0.1781026015E-04       4    5    1        -0.1050728806E-02      0.2300932057E-02

    ------------------------------------------------
       NWT REQUIRED            4 OUTER ITERATIONS 
       AND A TOTAL OF          7 INNER ITERATIONS.
    ------------------------------------------------

 NO OUTPUT CONTROL FOR STRESS PERIOD   10   TIME STEP   19
 
 SOLVING FOR HEAD 
                                                   Max.-Head-Change                         Max.-Flux-Residual
  Residual-Control   Outer-Iter.   Inner-Iter.     Column Row Layer    Maximum-Head-Change  Column Row Layer    Maximum-Flux-Residual          L2-NORM 
          0                 1           2             4    5     1       0.6467166355E-01       4    5    1         0.3510958168E+01      0.7739595938E+01
          0                 2           2             4    7     1      -0.8914892119E-02       4    7    1        -0.4830960920E+00      0.1220181091E+01
          0                 3           2             4    7     1       0.7118641075E-02       4    7    1         0.3931644519E+00      0.9574767377E+00
          0                 4           2             4    6     1      -0.1545783427E+00       5    6    1        -0.8653391984E+01      0.2117728071E+02
          0                 5           2             4    6     1       0.8044633521E-01       5    6    1         0.4632703602E+01      0.1098670055E+02
          0                 6           2             7   13     1      -0.1949238169E-02       7   13    1        -0.1086428691E+00      0.2028799045E+00
          0                 7           2             7   13     1       0.1327308863E-03       7   13    1         0.7602450643E-02      0.8402331336E-02
          0                 8           1             7   13     1      -0.5280857056E-05       7   13    1        -0.3108619212E-03      0.3144886184E-03

    ------------------------------------------------
       NWT REQUIRED            8 OUTER ITERATIONS 
       AND A TOTAL OF         15 INNER ITERATIONS.
    ------------------------------------------------

 NO OUTPUT CONTROL FOR STRESS PERIOD   10   TIME STEP   20
 
 SOLVING FOR HEAD 
                                                   Max.-Head-Change                         Max.-Flux-Residual
  Residual-Control   Outer-Iter.   Inner-Iter.     Column Row Layer    Maximum-Head-Change  Column Row Layer    Maximum-Flux-Residual          L2-NORM 
          0                 1           2             4    5     1       0.6079939430E-01       4    5    1         0.3298844042E+01      0.7323893630E+01
          0                 2           2             4    5     1      -0.5914302274E-02       4    5    1        -0.3298967098E+00      0.7392933263E+00
          0                 3           2             4    5     1       0.4027403073E-03       4    5    1         0.2309266322E-01      0.5174112221E-01
          0                 4           1             4    5     1      -0.1602543294E-04       4    5    1        -0.9444917689E-03      0.2115733379E-02

    ------------------------------------------------
       NWT REQUIRED            4 OUTER ITERATIONS 
       AND A TOTAL OF          7 INNER ITERATIONS.
    ------------------------------------------------

 NO OUTPUT CONTROL FOR STRESS PERIOD   10   TIME STEP   21
 
 SOLVING FOR HEAD 
                                                   Max.-Head-Change                         Max.-Flux-Residual
  Residual-Control   Outer-Iter.   Inner-Iter.     Column Row Layer    Maximum-Head-Change  Column Row Layer    Maximum-Flux-Residual          L2-NORM 
          0                 1           2             4    5     1       0.5824908931E-01       4    5    1         0.3159045589E+01      0.7070776411E+01
          0                 2           2             4    5     1      -0.5666210080E-02       4    5    1        -0.3159157794E+00      0.7482363014E+00
          0                 3           2             5    8     1       0.1931928380E-02       5    8    1         0.1061792471E+00      0.1169663608E+00
          0                 4           1             5    8     1       0.7976332690E-03       5    8    1         0.4402165322E-01      0.4406540827E-01
          0                 5           1             5    8     1       0.3293180312E-03       5    8    1         0.1816767107E-01      0.1816792780E-01
          0                 6           1             5    8     1       0.1359652005E-03       5    8    1         0.7501175477E-02      0.7501227552E-02
          0                 7           1             5    8     1       0.5613581459E-04       5    8    1         0.3096990279E-02      0.3097013433E-02

    ------------------------------------------------
       NWT REQUIRED            7 OUTER ITERATIONS 
       AND A TOTAL OF         10 INNER ITERATIONS.
    ------------------------------------------------

 NO OUTPUT CONTROL FOR STRESS PERIOD   10   TIME STEP   22
 
 SOLVING FOR HEAD 
                                                   Max.-Head-Change                         Max.-Flux-Residual
  Residual-Control   Outer-Iter.   Inner-Iter.     Column Row Layer    Maximum-Head-Change  Column Row Layer    Maximum-Flux-Residual          L2-NORM 
          0                 1           2             5    8     1       0.2577652844E+00       5    8    1         0.1416349455E+02      0.1569740603E+02
          0                 2           2             5    8     1       0.1064144317E+00       5    8    1         0.5877614297E+01      0.5916439524E+01
          0                 3           2             5    8     1       0.4393175065E-01       5    8    1         0.2423566148E+01      0.2424058492E+01
          0                 4           2             5    8     1       0.1813665974E-01       5    8    1         0.1000734828E+01      0.1000739027E+01
          0                 5           2             5    8     1       0.7487493157E-02       5    8    1         0.4131295618E+00      0.4131310740E+00
          0                 6           1             5    8     1       0.3091118903E-02       5    8    1         0.1705565734E+00      0.1705571702E+00
          0                 7           1             5    8     1       0.1276130361E-02       5    8    1         0.7041212667E-01      0.7041237387E-01
          0                 8           1             5    8     1       0.5268347279E-03       5    8    1         0.2906879430E-01      0.2906889627E-01
          0                 9           1             5    8     1       0.2174972443E-03       5    8    1         0.1200069479E-01      0.1200073687E-01
          0                10           1             5    8     1       0.8979106534E-04       5    8    1         0.4954339714E-02      0.4954357080E-02

    ------------------------------------------------
       NWT REQUIRED           10 OUTER ITERATIONS 
       AND A TOTAL OF         15 INNER ITERATIONS.
    ------------------------------------------------

 NO OUTPUT CONTROL FOR STRESS PERIOD   10   TIME STEP   23
 
 SOLVING FOR HEAD 
                                                   Max.-Head-Change                         Max.-Flux-Residual
  Residual-Control   Outer-Iter.   Inner-Iter.     Column Row Layer    Maximum-Head-Change  Column Row Layer    Maximum-Flux-Residual          L2-NORM 
          0                 1           2             5    8     1       0.2017850517E+00       5    8    1         0.1105427430E+02      0.1297569447E+02
          0                 2           2             5    8     1       0.7945303924E-01       5    8    1         0.4392772409E+01      0.4445571592E+01
          0                 3           2             5    8     1       0.3136472938E-01       5    8    1         0.1730097191E+01      0.1730790817E+01
          0                 4           2             5    8     1       0.1239570354E-01       5    8    1         0.6839511798E+00      0.6839692493E+00
          0                 5           2             4    7     1      -0.6752938128E-02       4    6    1        -0.3833071699E+00      0.8640159951E+00
          0                 6           2             5    8     1      -0.7682968910E-02       5    8    1        -0.4243316791E+00      0.9388800895E+00
          0                 7           2             4    7     1       0.1302843558E-01       4    7    1         0.7600080161E+00      0.1793646449E+01
          0                 8           2             5    8     1       0.4404864649E-02       5    8    1         0.2564703310E+00      0.2612678478E+00
          0                 9           1             5    8     1       0.1873277032E-02       5    8    1         0.1092372811E+00      0.1093352364E+00
          0                10           2             5    8     1      -0.3344916902E-01       4    7    1        -0.1989432727E+01      0.4854080489E+01
                                                   Max.-Head-Change                         Max.-Flux-Residual
  Residual-Control   Outer-Iter.   Inner-Iter.     Column Row Layer    Maximum-Head-Change  Column Row Layer    Maximum-Flux-Residual          L2-NORM 
          0                11           2             4    7     1       0.3126814001E-01       4    7    1         0.1926794910E+01      0.4429598851E+01
          0                12           2             5    8     1       0.8794760330E-02       5    8    1         0.5377059845E+00      0.6322936414E+00
          0                13           2             5    8     1       0.4030324765E-02       5    8    1         0.2479813406E+00      0.2494862035E+00
          0                14           1             5    8     1       0.1846932111E-02       5    8    1         0.1137438638E+00      0.1137704330E+00
          0                15           1             5    8     1       0.8463629577E-03       5    8    1         0.5213005165E-01      0.5213101019E-01
          0                16           1             5    8     1       0.3878440829E-03       5    8    1         0.2388872153E-01      0.2388892592E-01
          0                17           1             5    8     1       0.1777266233E-03       5    8    1         0.1094674745E-01      0.1094683398E-01
          0                18           1             5    8     1       0.8144090681E-04       5    8    1         0.5016155586E-02      0.5016194908E-02

    ------------------------------------------------
       NWT REQUIRED           18 OUTER ITERATIONS 
       AND A TOTAL OF         30 INNER ITERATIONS.
    ------------------------------------------------

 NO OUTPUT CONTROL FOR STRESS PERIOD   10   TIME STEP   24
 
 SOLVING FOR HEAD 
                                                   Max.-Head-Change                         Max.-Flux-Residual
  Residual-Control   Outer-Iter.   Inner-Iter.     Column Row Layer    Maximum-Head-Change  Column Row Layer    Maximum-Flux-Residual          L2-NORM 
          0                 1           2             5    8     1       0.1562490592E+00       5    8    1         0.8527360243E+01      0.1092078287E+02
          0                 2           2             5    8     1       0.6181714335E-01       5    8    1         0.3418489509E+01      0.3487402995E+01
          0                 3           2             5    8     1       0.2444914888E-01       5    8    1         0.1347584144E+01      0.1348501084E+01
          0                 4           2             5    8     1       0.9669850434E-02       5    8    1         0.5332414323E+00      0.5332459581E+00
          0                 5           1             5    8     1       0.3824513254E-02       5    8    1         0.2108916985E+00      0.2108934947E+00
          0                 6           1             5    8     1       0.1512630130E-02       5    8    1         0.8341010286E-01      0.8341075338E-01
          0                 7           1             5    8     1       0.5982592027E-03       5    8    1         0.3298946030E-01      0.3298971983E-01
          0                 8           1             5    8     1       0.2366170599E-03       5    8    1         0.1304763996E-01      0.1304774254E-01
          0                 9           1             5    8     1       0.9358424267E-04       5    8    1         0.5160463005E-02      0.5160503689E-02

    ------------------------------------------------
       NWT REQUIRED            9 OUTER ITERATIONS 
       AND A TOTAL OF         13 INNER ITERATIONS.
    ------------------------------------------------

 NO OUTPUT CONTROL FOR STRESS PERIOD   10   TIME STEP   25
 
 SOLVING FOR HEAD 
                                                   Max.-Head-Change                         Max.-Flux-Residual
  Residual-Control   Outer-Iter.   Inner-Iter.     Column Row Layer    Maximum-Head-Change  Column Row Layer    Maximum-Flux-Residual          L2-NORM 
          0                 1           2             4    8     1       0.2042037018E+00       4    8    1         0.1094616319E+02      0.1685642624E+02
          0                 2           2             4    8     1       0.7545990752E-01       4    8    1         0.4071602938E+01      0.5752998568E+01
          0                 3           2             4    8     1       0.3813343171E-01       4    8    1         0.2044196384E+01      0.3060917405E+01
          0                 4           2             4    8     1       0.1581904611E-01       4    8    1         0.8505000110E+00      0.1238981553E+01
          0                 5           2             4    8     1       0.6398159544E-02       4    8    1         0.3439890802E+00      0.4996885872E+00
          0                 6           2             4    8     1       0.1534224923E-02       4    8    1         0.8345839497E-01      0.1453373822E+00
          0                 7           2             4    8     1       0.1731102419E-02       4    8    1         0.9209447007E-01      0.1769558435E+00
          0                 8           2             4    6     1      -0.2787002472E-02       4    6    1        -0.1649090019E+00      0.3614545143E+00
          0                 9           2             5    7     1      -0.4007802383E-01       5    7    1        -0.2174527730E+01      0.5263070092E+01
          0                10           2             4    6     1       0.3722884773E-01       4    6    1         0.2265797474E+01      0.4517958430E+01
                                                   Max.-Head-Change                         Max.-Flux-Residual
  Residual-Control   Outer-Iter.   Inner-Iter.     Column Row Layer    Maximum-Head-Change  Column Row Layer    Maximum-Flux-Residual          L2-NORM 
          0                11           2             4    8     1       0.1083226411E-01       5    7    1         0.6148335411E+00      0.1091037925E+01
          0                12           2             4    8     1       0.4784255066E-02       4    8    1         0.2707313726E+00      0.4662782601E+00
          0                13           2             4    8     1       0.2113011028E-02       4    8    1         0.1196230132E+00      0.2047005776E+00
          0                14           2             4    8     1       0.9332109081E-03       4    8    1         0.5283501762E-01      0.8993150611E-01
          0                15           2             4    8     1       0.4121420281E-03       4    8    1         0.2333430863E-01      0.3951286455E-01
          0                16           2             4    8     1       0.1820126820E-03       4    8    1         0.1030512344E-01      0.1736205922E-01
          0                17           1             4    8     1       0.8037902487E-04       4    8    1         0.4550911583E-02      0.7629577639E-02

    ------------------------------------------------
       NWT REQUIRED           17 OUTER ITERATIONS 
       AND A TOTAL OF         33 INNER ITERATIONS.
    ------------------------------------------------

 NO OUTPUT CONTROL FOR STRESS PERIOD   10   TIME STEP   26
 
 SOLVING FOR HEAD 
                                                   Max.-Head-Change                         Max.-Flux-Residual
  Residual-Control   Outer-Iter.   Inner-Iter.     Column Row Layer    Maximum-Head-Change  Column Row Layer    Maximum-Flux-Residual          L2-NORM 
          0                 1           2             4    8     1       0.2035998544E+00       5    7    1         0.1093379778E+02      0.1969657154E+02
          0                 2           2             4    8     1       0.8396056317E-01       4    8    1         0.4481128103E+01      0.7668963018E+01
          0                 3           2             4    8     1       0.3461998184E-01       4    8    1         0.1846302716E+01      0.3129176762E+01
          0                 4           2             4    8     1       0.1427382415E-01       4    8    1         0.7613812757E+00      0.1283494816E+01
          0                 5           2             4    8     1       0.5884664563E-02       4    8    1         0.3139092457E+00      0.5266847605E+00
          0                 6           2             4    8     1       0.2425919572E-02       4    8    1         0.1294137311E+00      0.2162239284E+00
          0                 7           2             4    8     1       0.1000021217E-02       4    8    1         0.5334947509E-01      0.8880325332E-01
          0                 8           2             4    8     1       0.4122155577E-03       4    8    1         0.2199170755E-01      0.3648468319E-01
          0                 9           2             4    8     1       0.1699125920E-03       4    8    1         0.9065063631E-02      0.1499457296E-01
          0                10           1             4    8     1       0.7003512980E-04       4    8    1         0.3736538547E-02      0.6164332334E-02

    ------------------------------------------------
       NWT REQUIRED           10 OUTER ITERATIONS 
       AND A TOTAL OF         19 INNER ITERATIONS.
    ------------------------------------------------

 NO OUTPUT CONTROL FOR STRESS PERIOD   10   TIME STEP   27
 
 SOLVING FOR HEAD 
                                                   Max.-Head-Change                         Max.-Flux-Residual
  Residual-Control   Outer-Iter.   Inner-Iter.     Column Row Layer    Maximum-Head-Change  Column Row Layer    Maximum-Flux-Residual          L2-NORM 
          0                 1           2             4    7     1       0.2137334572E+00       4    7    1         0.1134711164E+02      0.2136194987E+02
          0                 2           2             4    7     1       0.8049297067E-01       4    7    1         0.4283609300E+01      0.7539166747E+01
          0                 3           2             4    7     1       0.4072826746E-01       4    7    1         0.2157243527E+01      0.3938822978E+01
          0                 4           2             4    7     1       0.1736632616E-01       4    7    1         0.9224754945E+00      0.1671273441E+01
          0                 5           2             4    7     1       0.5958862860E-02       4    7    1         0.3176243159E+00      0.5535173404E+00
          0                 6           2             4    6     1      -0.1292511436E-01       4    6    1        -0.7263188317E+00      0.1593193542E+01
          0                 7           2             4    6     1       0.1434269200E-01       4    6    1         0.8340636416E+00      0.1468740016E+01
          0                 8           2             4    7     1       0.4416765233E-02       4    7    1         0.2474805025E+00      0.5318563011E+00
          0                 9           2             4    7     1       0.1974650169E-02       4    7    1         0.1105729703E+00      0.2345198744E+00
          0                10           2             4    7     1       0.8828140737E-03       4    7    1         0.4943181960E-01      0.1035626983E+00
                                                   Max.-Head-Change                         Max.-Flux-Residual
  Residual-Control   Outer-Iter.   Inner-Iter.     Column Row Layer    Maximum-Head-Change  Column Row Layer    Maximum-Flux-Residual          L2-NORM 
          0                11           2             4    7     1       0.3946664519E-03       4    7    1         0.2209910670E-01      0.4576379520E-01
          0                12           2             4    7     1       0.1764263176E-03       4    7    1         0.9879283572E-02      0.2023436251E-01
          0                13           1             4    7     1       0.7886067908E-04       4    7    1         0.4416189593E-02      0.8951005842E-02

    ------------------------------------------------
       NWT REQUIRED           13 OUTER ITERATIONS 
       AND A TOTAL OF         25 INNER ITERATIONS.
    ------------------------------------------------

 NO OUTPUT CONTROL FOR STRESS PERIOD   10   TIME STEP   28
 
 SOLVING FOR HEAD 
                                                   Max.-Head-Change                         Max.-Flux-Residual
  Residual-Control   Outer-Iter.   Inner-Iter.     Column Row Layer    Maximum-Head-Change  Column Row Layer    Maximum-Flux-Residual          L2-NORM 
          0                 1           2             4    7     1       0.2052218589E+00       4    7    1         0.1088606778E+02      0.2198913013E+02
          0                 2           2             4    7     1       0.7699194824E-01       4    7    1         0.4097962029E+01      0.7763301473E+01
          0                 3           2             4    7     1       0.3922432302E-01       4    7    1         0.2077279805E+01      0.4014864217E+01
          0                 4           2             4    7     1       0.1664974990E-01       4    7    1         0.8846605777E+00      0.1672938101E+01
          0                 5           2             4    7     1       0.6941009550E-02       4    7    1         0.3689926162E+00      0.6866655767E+00
          0                 6           2             4    7     1       0.2587128414E-02       4    7    1         0.1378927014E+00      0.2478865999E+00
          0                 7           2             4    7     1       0.1291822252E-02       4    7    1         0.6855367685E-01      0.1269156027E+00
          0                 8           2             4    7     1       0.4231135373E-03       4    7    1         0.2262349855E-01      0.3949369752E-01
          0                 9           2             4    8     1      -0.4349690421E-02       4    6    1        -0.2425525195E+00      0.5800620660E+00
          0                10           2             4    6     1       0.3814015393E-02       4    6    1         0.2408316404E+00      0.4210011053E+00
                                                   Max.-Head-Change                         Max.-Flux-Residual
  Residual-Control   Outer-Iter.   Inner-Iter.     Column Row Layer    Maximum-Head-Change  Column Row Layer    Maximum-Flux-Residual          L2-NORM 
          0                11           2             4    7     1      -0.1204879540E+00       4    6    1        -0.6887878360E+01      0.1676933511E+02
          0                12           2             4    6     1       0.4656419791E-01       4    6    1         0.3143373411E+01      0.3606090773E+01
          0                13           2             5    8     1       0.6004420245E-02       4    6    1         0.3674423404E+00      0.8289486491E+00
          0                14           2             4    8     1       0.2744194020E-02       5    8    1         0.1630492535E+00      0.3494873852E+00
          0                15           2             4    8     1       0.1308904107E-02       4    8    1         0.7736872514E-01      0.1632361508E+00
          0                16           2             4    8     1       0.6239099951E-03       4    8    1         0.3690276396E-01      0.7676581612E-01
          0                17           2             4    8     1       0.2972247855E-03       4    8    1         0.1759027059E-01      0.3613741993E-01
          0                18           2             4    8     1       0.1415213598E-03       4    8    1         0.8379810837E-02      0.1702290934E-01
          0                19           1             4    8     1       0.6735268465E-04       4    8    1         0.3989964141E-02      0.8023545866E-02

    ------------------------------------------------
       NWT REQUIRED           19 OUTER ITERATIONS 
       AND A TOTAL OF         37 INNER ITERATIONS.
    ------------------------------------------------

 NO OUTPUT CONTROL FOR STRESS PERIOD   10   TIME STEP   29
 
 SOLVING FOR HEAD 
                                                   Max.-Head-Change                         Max.-Flux-Residual
  Residual-Control   Outer-Iter.   Inner-Iter.     Column Row Layer    Maximum-Head-Change  Column Row Layer    Maximum-Flux-Residual          L2-NORM 
          0                 1           2             4    7     1       0.1974401193E+00       4    7    1         0.1052432534E+02      0.1963086569E+02
          0                 2           2             4    7     1       0.8120390193E-01       4    7    1         0.4342891234E+01      0.7491305288E+01
          0                 3           2             4    7     1       0.3337258569E-01       4    7    1         0.1784767819E+01      0.3007405622E+01
          0                 4           2             4    7     1       0.1370565700E-01       4    7    1         0.7334755951E+00      0.1215050522E+01
          0                 5           2             4    7     1       0.5625096123E-02       4    7    1         0.3011813048E+00      0.4909888770E+00
          0                 6           2             4    7     1       0.2307283677E-02       4    7    1         0.1235965733E+00      0.1984692069E+00
          0                 7           2             4    7     1       0.9458709979E-03       4    7    1         0.5069056161E-01      0.8024738619E-01
          0                 8           2             4    7     1       0.3875608179E-03       4    7    1         0.2077838536E-01      0.3245485640E-01
          0                 9           2             4    7     1       0.1587232221E-03       4    7    1         0.8512882706E-02      0.1312898624E-01
          0                10           1             4    7     1       0.6497524996E-04       4    7    1         0.3486078559E-02      0.5312249100E-02

    ------------------------------------------------
       NWT REQUIRED           10 OUTER ITERATIONS 
       AND A TOTAL OF         19 INNER ITERATIONS.
    ------------------------------------------------

 NO OUTPUT CONTROL FOR STRESS PERIOD   10   TIME STEP   30



 STREAM LISTING     PERIOD     10   STEP       30

 LAYER ROW COL. STREAM  RCH.  FLOW INTO     FLOW TO   FLOW OUT OF   OVRLND.     DIRECT     STREAM       STREAM     STREAM     STREAM   STREAMBED  STREAMBED
                SEG.NO.  NO.  STRM. RCH.    AQUIFER    STRM. RCH.    RUNOFF     PRECIP       ET          HEAD       DEPTH      WIDTH   CONDCTNC.   GRADIENT

   1    1    1     1     1    3.5250E+01  2.8720E-01   3.4963E+01  0.000E+00  0.000E+00  0.000E+00  1.09434E+03  1.294E+00  1.486E+01  6.688E-02  1.431E+00
   1    2    2     1     2    3.4963E+01  4.4467E-01   3.4518E+01  0.000E+00  0.000E+00  0.000E+00  1.08935E+03  1.291E+00  1.480E+01  1.036E-01  1.430E+00
   1    3    3     1     3    3.4518E+01  3.7912E-01   3.4139E+01  0.000E+00  0.000E+00  0.000E+00  1.08371E+03  1.288E+00  1.474E+01  8.841E-02  1.429E+00
   1    3    4     1     4    3.4139E+01  3.4902E-01   3.3790E+01  0.000E+00  0.000E+00  0.000E+00  1.07869E+03  1.285E+00  1.468E+01  8.145E-02  1.428E+00
   1    4    5     2     1    3.1790E+01  3.4244E-01   3.1447E+01  0.000E+00  0.000E+00  0.000E+00  1.07332E+03  1.390E+00  1.200E+01  7.800E-02  1.463E+00
   1    5    6     2     2    3.1447E+01  2.6294E-01   3.1184E+01  0.000E+00  0.000E+00  0.000E+00  1.06789E+03  1.382E+00  1.200E+01  6.000E-02  1.461E+00
   1    6    6     2     3    3.1184E+01  2.6252E-01   3.0922E+01  0.000E+00  0.000E+00  0.000E+00  1.06317E+03  1.375E+00  1.200E+01  6.000E-02  1.458E+00
   1    7    6     2     4    3.0922E+01  2.6210E-01   3.0660E+01  0.000E+00  0.000E+00  0.000E+00  1.05844E+03  1.368E+00  1.200E+01  6.000E-02  1.456E+00
   1    8    6     2     5    3.0660E+01  2.6168E-01   3.0398E+01  0.000E+00  0.000E+00  0.000E+00  1.05372E+03  1.361E+00  1.200E+01  6.000E-02  1.454E+00
   1    3    5     3     1    2.0000E+00  2.8252E-01   1.7175E+00  0.000E+00  0.000E+00  0.000E+00  1.07555E+03  1.909E+00  9.636E+00  7.227E-02  1.955E+00
   1    3    6     3     2    1.7175E+00  2.4905E-01   1.4684E+00  0.000E+00  0.000E+00  0.000E+00  1.07264E+03  1.727E+00  8.909E+00  6.682E-02  1.864E+00
   1    3    7     3     3    1.4684E+00  1.9718E-01   1.2712E+00  0.000E+00  0.000E+00  0.000E+00  1.06987E+03  1.555E+00  8.218E+00  5.547E-02  1.777E+00
   1    4    8     3     4    1.2712E+00  2.2567E-01   1.0456E+00  0.000E+00  0.000E+00  0.000E+00  1.06682E+03  1.364E+00  7.455E+00  6.709E-02  1.682E+00
   1    5    8     3     5    1.0456E+00  1.5790E-01   8.8768E-01  0.000E+00  0.000E+00  0.000E+00  1.06362E+03  1.164E+00  6.655E+00  4.991E-02  1.582E+00
   1    6    8     3     6    8.8768E-01  5.5980E-02   8.3170E-01  0.000E+00  0.000E+00  0.000E+00  1.06158E+03  1.036E+00  6.145E+00  1.844E-02  1.518E+00
   1    5   10     4     1    1.0000E+01  9.0919E-02   9.9091E+00  0.000E+00  0.000E+00  0.000E+00  1.07836E+03  6.368E-01  1.000E+01  2.500E-02  1.212E+00
   1    5    9     4     2    9.9091E+00  1.8158E-01   9.7275E+00  0.000E+00  0.000E+00  0.000E+00  1.07154E+03  6.315E-01  1.000E+01  5.000E-02  1.211E+00
   1    6    8     4     3    9.7275E+00  1.2689E-01   9.6006E+00  0.000E+00  0.000E+00  0.000E+00  1.06381E+03  6.256E-01  1.000E+01  3.500E-02  1.209E+00
   1    6    8     5     1    1.0432E+01  2.2686E-01   1.0205E+01  0.000E+00  0.000E+00  0.000E+00  1.05868E+03  6.790E-01  1.542E+01  6.166E-02  1.226E+00
   1    7    7     5     2    1.0205E+01  2.7894E-01   9.9265E+00  0.000E+00  0.000E+00  0.000E+00  1.05417E+03  6.732E-01  1.519E+01  7.594E-02  1.224E+00
   1    8    7     5     3    9.9265E+00  1.9221E-01   9.7343E+00  0.000E+00  0.000E+00  0.000E+00  1.04992E+03  6.676E-01  1.497E+01  5.241E-02  1.223E+00
   1    8    6     5     4    9.7343E+00  1.3577E-01   9.5985E+00  0.000E+00  0.000E+00  0.000E+00  1.04691E+03  6.637E-01  1.482E+01  3.706E-02  1.221E+00
   1    9    6     6     1    3.9997E+01  2.7692E-01   3.9720E+01  0.000E+00  0.000E+00  0.000E+00  1.04434E+03  1.615E+00  1.200E+01  6.000E-02  1.538E+00
   1   10    7     6     2    3.9720E+01  2.7652E-01   3.9443E+01  0.000E+00  0.000E+00  0.000E+00  1.03979E+03  1.609E+00  1.200E+01  6.000E-02  1.536E+00
   1   11    7     6     3    3.9443E+01  2.7611E-01   3.9167E+01  0.000E+00  0.000E+00  0.000E+00  1.03524E+03  1.602E+00  1.200E+01  6.000E-02  1.534E+00
   1   12    7     6     4    3.9167E+01  2.7571E-01   3.8891E+01  0.000E+00  0.000E+00  0.000E+00  1.03069E+03  1.595E+00  1.200E+01  6.000E-02  1.532E+00
   1   13    7     6     5    3.8891E+01  1.0433E-02   3.8881E+01  0.000E+00  0.000E+00  0.000E+00  1.02750E+03  1.592E+00  1.200E+01  2.400E-02  1.449E-01
   1   14    9     7     1    1.5000E+02  1.3360E+00   1.4866E+02  0.000E+00  0.000E+00  0.000E+00  1.03987E+03  2.288E+00  5.529E+01  5.593E-01  7.962E-01
   1   13    8     7     2    1.4866E+02  1.8302E+00   1.4683E+02  0.000E+00  0.000E+00  0.000E+00  1.03478E+03  2.279E+00  5.526E+01  6.148E-01  9.923E-01
   1   13    7     7     3    1.4683E+02  1.4653E+00   1.4537E+02  0.000E+00  0.000E+00  0.000E+00  1.02969E+03  2.271E+00  5.522E+01  5.585E-01  8.746E-01
   1   13    6     8     1    1.8425E+02  9.8215E-01   1.8327E+02  0.000E+00  0.000E+00  0.000E+00  1.02491E+03  3.040E+00  4.407E+01  4.491E-01  7.289E-01
   1   13    5     8     2    1.8327E+02  2.2343E-01   1.8304E+02  0.000E+00  0.000E+00  0.000E+00  1.01866E+03  3.036E+00  4.402E+01  4.486E-01  1.660E-01
   1   13    4     8     3    1.8304E+02 -2.1397E+00   1.8518E+02  0.000E+00  0.000E+00  0.000E+00  1.01242E+03  3.042E+00  4.411E+01  4.495E+00 -1.587E-01
   1   13    3     8     4    1.8518E+02 -3.4363E+00   1.8862E+02  0.000E+00  0.000E+00  0.000E+00  1.00618E+03  3.059E+00  4.436E+01  4.520E+00 -2.534E-01
   1   13    2     8     5    1.8862E+02 -2.3381E+00   1.9096E+02  0.000E+00  0.000E+00  0.000E+00  9.99952E+02  3.077E+00  4.461E+01  4.546E+00 -1.714E-01
   1   13    1     8     6    1.9096E+02 -1.8216E+00   1.9278E+02  0.000E+00  0.000E+00  0.000E+00  9.94964E+02  3.089E+00  4.479E+01  2.739E+00 -2.217E-01
   1    8    6     9     1    6.3737E-07  0.0000E+00   6.3737E-07  0.000E+00  0.000E+00  0.000E+00  1.07875E+03  1.024E-04  4.000E+00  0.000E+00  1.000E+00
   1    8    5     9     2    6.3737E-07  0.0000E+00   6.3737E-07  0.000E+00  0.000E+00  0.000E+00  1.07825E+03  1.024E-04  4.000E+00  0.000E+00  1.000E+00





UNSATURATED ZONE PACKAGE VOLUMETRIC BUDGET FOR  TIME STEP    30 STRESS PERIOD   10
  ------------------------------------------------------------------------------



     CUMULATIVE VOLUMES      L**3       RATES FOR THIS TIME STEP      L**3/T
     ------------------                 ------------------------

           IN:                                      IN:
           ---                                      ---
        INFILTRATION =  2618878592.6581          INFILTRATION =           0.8475

          OUT:                                     OUT:
          ----                                     ----
              UZF ET =   424345313.3409                UZF ET =          12.0675
        UZF RECHARGE =  1603696214.3262          UZF RECHARGE =          77.7306

            IN - OUT =   590837064.9910              IN - OUT =         -88.9506

          STORAGE:                                 STORAGE:
          --------                                 --------
      STORAGE CHANGE =   591317125.8688        STORAGE CHANGE =         -88.9377

 PERCENT DISCREPANCY IS DIFFERENCE BETWEEN IN-OUT MINUS CHANGE IN STORAGE
 DIVIDED BY THE AVERAGE OF IN AND OUT TIMES 100

 PERCENT DISCREPANCY =          -0.00     PERCENT DISCREPANCY =          -0.01






1
  VOLUMETRIC BUDGET FOR AGRICULTURAL FIELDS AT  END OF TIME STEP   30, STRESS PERIOD  10
  ------------------------------------------------------------------------------

     CUMULATIVE VOLUMES      L**3       RATES FOR THIS TIME STEP      L**3/T
     ------------------                 ------------------------

           IN:                                      IN:
           ---                                      ---
               AG WELLS  =  2251250432.0000                 AG WELLS  =       6.3737E-08
      DIVERSION SEGMENTS =   347499584.0000        DIVERSION SEGMENTS =       6.3737E-07
       IRRIGATION PONDS  =           0.0000         IRRIGATION PONDS  =           0.0000
           GW IRRIGATION =           0.0000             GW IRRIGATION =           0.0000
           SW IRRIGATION =           0.0000             SW IRRIGATION =           0.0000
        SYSTEM LOSSES GW =           0.0000          SYSTEM LOSSES GW =           0.0000
        SYSTEM LOSSES SW =           0.0000          SYSTEM LOSSES SW =           0.0000

                TOTAL IN =  2598749952.0000                  TOTAL IN =       7.0111E-07

          OUT:                                     OUT:
          ----                                     ----
               AG WELLS  =           0.0000                 AG WELLS  =           0.0000
      DIVERSION SEGMENTS =           0.0000        DIVERSION SEGMENTS =           0.0000
       IRRIGATION PONDS  =           0.0000         IRRIGATION PONDS  =           0.0000
           GW IRRIGATION =  2251250432.0000             GW IRRIGATION =       6.3737E-08
           SW IRRIGATION =   347506400.0000             SW IRRIGATION =       6.3738E-07
        SYSTEM LOSSES GW =           0.0000          SYSTEM LOSSES GW =           0.0000
        SYSTEM LOSSES SW =           0.0000          SYSTEM LOSSES SW =           0.0000

               TOTAL OUT =  2598756864.0000                 TOTAL OUT =       7.0112E-07

                IN - OUT =       -6912.0000                  IN - OUT =      -1.2733E-11

     PERCENT DISCREPANCY =          -0.00         PERCENT DISCREPANCY =          -0.00



1
  VOLUMETRIC BUDGET FOR ENTIRE MODEL AT END OF TIME STEP   30, STRESS PERIOD  10
  ------------------------------------------------------------------------------

     CUMULATIVE VOLUMES      L**3       RATES FOR THIS TIME STEP      L**3/T
     ------------------                 ------------------------

           IN:                                      IN:
           ---                                      ---
             STORAGE     =  2361311232.0000               STORAGE     =          15.0341
       CONSTANT HEAD     =           0.0000         CONSTANT HEAD     =           0.0000
     HEAD DEP BOUNDS     =     6788022.5000       HEAD DEP BOUNDS     =           0.2858
      STREAM LEAKAGE     =   289370048.0000        STREAM LEAKAGE     =          12.2059
        UZF RECHARGE     =  1603696384.0000          UZF RECHARGE     =          77.7306
               GW ET     =           0.0000                 GW ET     =           0.0000
     SURFACE LEAKAGE     =           0.0000       SURFACE LEAKAGE     =           0.0000
           AG WELLS      =           0.0000             AG WELLS      =           0.0000

                TOTAL IN =  4261165824.0000                  TOTAL IN =         105.2563

          OUT:                                     OUT:
          ----                                     ----
             STORAGE     =  1746429184.0000               STORAGE     =          95.2261
       CONSTANT HEAD     =           0.0000         CONSTANT HEAD     =           0.0000
     HEAD DEP BOUNDS     =     6915262.0000       HEAD DEP BOUNDS     =           0.2899
      STREAM LEAKAGE     =   255357744.0000        STREAM LEAKAGE     =           9.7357
        UZF RECHARGE     =           0.0000          UZF RECHARGE     =           0.0000
               GW ET     =     1207612.8750                 GW ET     =           0.0000
     SURFACE LEAKAGE     =           0.0000       SURFACE LEAKAGE     =           0.0000
           AG WELLS      =  2251250432.0000             AG WELLS      =       6.3737E-08

               TOTAL OUT =  4261159936.0000                 TOTAL OUT =         105.2517

                IN - OUT =        5888.0000                  IN - OUT =       4.5700E-03

     PERCENT DISCREPANCY =           0.00         PERCENT DISCREPANCY =           0.00






         TIME SUMMARY AT END OF TIME STEP   30 IN STRESS PERIOD   10
                    SECONDS     MINUTES      HOURS       DAYS        YEARS
                    -----------------------------------------------------------
   TIME STEP LENGTH  87667.      1461.1      24.352      1.0147     2.77799E-03
 STRESS PERIOD TIME 2.63000E+06  43833.      730.56      30.440     8.33397E-02
         TOTAL TIME 2.37564E+07 3.95940E+05  6599.0      274.96     0.75279    
1
1
                            STRESS PERIOD NO.   11, LENGTH =   2630000.    
                            -----------------------------------------------

                              NUMBER OF TIME STEPS =    30

                               MULTIPLIER FOR DELT =     1.000

                            INITIAL TIME STEP SIZE =   87666.66    

 REUSING NON-PARAMETER GHB CELLS FROM LAST STRESS PERIOD

      2 GHB CELLS

 REUSING STREAM SEGMENT DATA FROM LAST STRESS PERIOD



            AREAL INFILTRATION RATE
 READING ON UNIT   19 WITH FORMAT: (FREE)              

            1           2           3           4           5           6           7           8           9          10
 ........................................................................................................................
   1   1.0000E-10  2.0000E-10   0.000       0.000       0.000       0.000       0.000       0.000       0.000       0.000    
   2   2.0000E-10  1.0000E-10  2.0000E-10   0.000       0.000      8.0000E-10  8.0000E-10  5.0000E-10   0.000       0.000    
   3    0.000      5.0000E-10  1.0000E-10  1.0000E-10  8.0000E-10  8.0000E-10  5.0000E-10  5.0000E-10   0.000       0.000    
   4   8.0000E-10  5.0000E-10  1.0000E-10  1.0000E-10  1.0000E-10  1.0000E-10  1.0000E-10  1.0000E-10  2.0000E-10   0.000    
   5   8.0000E-10  5.0000E-10  1.0000E-10  1.0000E-10  1.0000E-10  1.0000E-10  1.0000E-10  1.0000E-10  1.0000E-10  1.0000E-10
   6   8.0000E-10  5.0000E-10  5.0000E-10  2.0000E-10  2.0000E-10  1.0000E-10  1.0000E-10  1.0000E-10  1.0000E-10  5.0000E-10
   7   8.0000E-10  5.0000E-10  5.0000E-10  2.0000E-10  2.0000E-10  1.0000E-10  1.0000E-10  2.0000E-10  2.0000E-10   0.000    
   8    0.000      5.0000E-10  5.0000E-10  2.0000E-10  2.0000E-10  1.0000E-10  1.0000E-10  2.0000E-10  5.0000E-10   0.000    
   9    0.000      5.0000E-10  5.0000E-10  2.0000E-10  2.0000E-10  1.0000E-10  1.0000E-10  2.0000E-10  5.0000E-10   0.000    
  10    0.000      5.0000E-10  5.0000E-10  2.0000E-10  2.0000E-10  1.0000E-10  1.0000E-10  2.0000E-10  5.0000E-10  8.0000E-10
  11    0.000      1.0000E-10  1.0000E-10  1.0000E-10  1.0000E-10  1.0000E-10  1.0000E-10  2.0000E-10  5.0000E-10   0.000    
  12   1.0000E-10  1.0000E-10  1.0000E-10  1.0000E-10  1.0000E-10  1.0000E-10  1.0000E-10  1.0000E-10  2.0000E-10   0.000    
  13   1.0000E-10  1.0000E-10  2.0000E-10  2.0000E-10  2.0000E-10  2.0000E-10  2.0000E-10  1.0000E-10  1.0000E-10   0.000    
  14    0.000      2.0000E-10  5.0000E-10  5.0000E-10  5.0000E-10  5.0000E-10  5.0000E-10  2.0000E-10  1.0000E-10   0.000    
  15    0.000       0.000      8.0000E-10  8.0000E-10  8.0000E-10  8.0000E-10   0.000       0.000       0.000       0.000    

                  ET RATE =  5.000000E-09

 USING ET EXTINCTION DEPTH FROM PREVIOUS STRESS PERIOD. CURRENT PERIOD IS:      11

 USING EXTINCTION WATER CONTENT FROM PREVIOUS STRESS PERIOD. CURRENT PERIOD IS:      11

 USING AIR ENTRY PRESSURE FROM PREVIOUS STRESS PERIOD. CURRENT PERIOD IS:      11

 USING ROOT PRESSURE HEAD FROM PREVIOUS STRESS PERIOD. CURRENT PERIOD IS:      11

 USING ROOT ACTIVITY FROM PREVIOUS STRESS PERIOD. CURRENT PERIOD IS:      11

 PROCESSING AG STRESS PERIOD DATA

 READING AG STRESS PERIOD DATA

 READING IRRIGATION SEGMENT

 READING IRRIGATION WELL

 READING SUPPLEMENTAL WELL

 NO IRRPOND OR REUSING IRRPOND DATA FROM LAST STRESS PERIOD

 END PROCESSING AG STRESS PERIOD DATA OPTIONS
 
 SOLVING FOR HEAD 
                                                   Max.-Head-Change                         Max.-Flux-Residual
  Residual-Control   Outer-Iter.   Inner-Iter.     Column Row Layer    Maximum-Head-Change  Column Row Layer    Maximum-Flux-Residual          L2-NORM 
          0                 1           2             4    7     1       0.1568263819E+00       4    7    1         0.8245756757E+01      0.1795967696E+02
          0                 2           2             4    7     1       0.6258710376E-01       4    7    1         0.3295930739E+01      0.6675532341E+01
          0                 3           2             4    7     1       0.2498891728E-01       4    7    1         0.1314883270E+01      0.2649763901E+01
          0                 4           2             4    7     1       0.9981534208E-02       4    7    1         0.5250747268E+00      0.1060539599E+01
          0                 5           2             4    7     1       0.3988644227E-02       4    7    1         0.2097515652E+00      0.4247425625E+00
          0                 6           2             4    7     1       0.1594495500E-02       4    7    1         0.8382411618E-01      0.1702365005E+00
          0                 7           2             4    7     1       0.6376522790E-03       4    6    1         0.3363309134E-01      0.6827750926E-01
          0                 8           2             4    6     1       0.2612795360E-03       4    6    1         0.1391311863E-01      0.2740230899E-01
          0                 9           1             4    6     1       0.1078531103E-03       4    6    1         0.5748379470E-02      0.1100440937E-01
          0                10           1             4    6     1       0.4447363286E-04       4    6    1         0.2372334419E-02      0.4421837567E-02

    ------------------------------------------------
       NWT REQUIRED           10 OUTER ITERATIONS 
       AND A TOTAL OF         18 INNER ITERATIONS.
    ------------------------------------------------

 NO OUTPUT CONTROL FOR STRESS PERIOD   11   TIME STEP    1
 
 SOLVING FOR HEAD 
                                                   Max.-Head-Change                         Max.-Flux-Residual
  Residual-Control   Outer-Iter.   Inner-Iter.     Column Row Layer    Maximum-Head-Change  Column Row Layer    Maximum-Flux-Residual          L2-NORM 
          0                 1           2             4    6     1       0.2106044076E+00       4    6    1         0.1125319310E+02      0.1926971936E+02
          0                 2           2             4    6     1       0.8622498252E-01       4    6    1         0.4629714066E+01      0.7255065593E+01
          0                 3           2             4    6     1       0.3528706515E-01       4    6    1         0.1893351585E+01      0.2898714455E+01
          0                 4           2             4    6     1       0.1443533230E-01       4    6    1         0.7748966115E+00      0.1166902380E+01
          0                 5           2             4    6     1       0.5903062726E-02       4    6    1         0.3169685683E+00      0.4700064537E+00
          0                 6           2             4    6     1       0.2413098976E-02       4    6    1         0.1296093853E+00      0.1894279120E+00
          0                 7           2             4    6     1       0.9861144751E-03       4    6    1         0.5297908738E-01      0.7638676115E-01
          0                 8           2             4    6     1       0.4028477218E-03       4    6    1         0.2164852890E-01      0.3081810187E-01
          0                 9           2             4    6     1       0.1645213994E-03       4    6    1         0.8843312921E-02      0.1243907360E-01
          0                10           1             4    6     1       0.6717045220E-04       4    6    1         0.3611359755E-02      0.5022817415E-02

    ------------------------------------------------
       NWT REQUIRED           10 OUTER ITERATIONS 
       AND A TOTAL OF         19 INNER ITERATIONS.
    ------------------------------------------------

 NO OUTPUT CONTROL FOR STRESS PERIOD   11   TIME STEP    2
 
 SOLVING FOR HEAD 
                                                   Max.-Head-Change                         Max.-Flux-Residual
  Residual-Control   Outer-Iter.   Inner-Iter.     Column Row Layer    Maximum-Head-Change  Column Row Layer    Maximum-Flux-Residual          L2-NORM 
          0                 1           2             4    6     1       0.1519655265E+00       4    6    1         0.8051011635E+01      0.1724585272E+02
          0                 2           2             4    6     1       0.5976716266E-01       4    6    1         0.3187688229E+01      0.6231423734E+01
          0                 3           2             4    6     1       0.2351404862E-01       4    6    1         0.1251694108E+01      0.2440168670E+01
          0                 4           2             4    6     1       0.9254001736E-02       4    6    1         0.4926129436E+00      0.9645660146E+00
          0                 5           2             4    6     1       0.3643017019E-02       4    6    1         0.1938759904E+00      0.3812927963E+00
          0                 6           2             4    6     1       0.1434546823E-02       4    6    1         0.7632782303E-01      0.1507485274E+00
          0                 7           2             4    7     1       0.5732195624E-03       4    7    1         0.3012779950E-01      0.5960647331E-01
          0                 8           2             4    7     1       0.2291115897E-03       4    7    1         0.1204823014E-01      0.2357090635E-01
          0                 9           1             4    7     1       0.9151726010E-04       4    7    1         0.4814950680E-02      0.9321741601E-02

    ------------------------------------------------
       NWT REQUIRED            9 OUTER ITERATIONS 
       AND A TOTAL OF         17 INNER ITERATIONS.
    ------------------------------------------------

 NO OUTPUT CONTROL FOR STRESS PERIOD   11   TIME STEP    3
 
 SOLVING FOR HEAD 
                                                   Max.-Head-Change                         Max.-Flux-Residual
  Residual-Control   Outer-Iter.   Inner-Iter.     Column Row Layer    Maximum-Head-Change  Column Row Layer    Maximum-Flux-Residual          L2-NORM 
          0                 1           2             4    6     1       0.1459663042E+00       4    6    1         0.7725699776E+01      0.1691168483E+02
          0                 2           2             4    6     1       0.5743817634E-01       4    6    1         0.3062596690E+01      0.6060678728E+01
          0                 3           2             4    6     1       0.2260900030E-01       4    6    1         0.1203016200E+01      0.2371453433E+01
          0                 4           2             4    6     1       0.8901981063E-02       4    6    1         0.4736999106E+00      0.9374476135E+00
          0                 5           2             4    7     1       0.3519021469E-02       4    6    1         0.1865183087E+00      0.3705898236E+00
          0                 6           2             4    7     1       0.1407406965E-02       4    7    1         0.7397432714E-01      0.1465235909E+00
          0                 7           2             4    7     1       0.5625123902E-03       4    7    1         0.2958136347E-01      0.5793833100E-01
          0                 8           2             4    7     1       0.2246878974E-03       4    7    1         0.1182154888E-01      0.2291212780E-01
          0                 9           1             4    7     1       0.8969769388E-04       4    7    1         0.4721388825E-02      0.9061524167E-02

    ------------------------------------------------
       NWT REQUIRED            9 OUTER ITERATIONS 
       AND A TOTAL OF         17 INNER ITERATIONS.
    ------------------------------------------------

 NO OUTPUT CONTROL FOR STRESS PERIOD   11   TIME STEP    4
 
 SOLVING FOR HEAD 
                                                   Max.-Head-Change                         Max.-Flux-Residual
  Residual-Control   Outer-Iter.   Inner-Iter.     Column Row Layer    Maximum-Head-Change  Column Row Layer    Maximum-Flux-Residual          L2-NORM 
          0                 1           2             4    6     1       0.1405505203E+00       4    6    1         0.7432960093E+01      0.1596921610E+02
          0                 2           2             4    6     1       0.5532068024E-01       4    6    1         0.2949561517E+01      0.5538520213E+01
          0                 3           2             4    6     1       0.2177709962E-01       4    6    1         0.1158686092E+01      0.2133493644E+01
          0                 4           2             4    6     1       0.8573464952E-02       4    6    1         0.4562750164E+00      0.8326523897E+00
          0                 5           2             4    6     1       0.3375534531E-02       4    6    1         0.1796295148E+00      0.3251853906E+00
          0                 6           2             4    7     1       0.1329283167E-02       4    6    1         0.7072469188E-01      0.1270866871E+00
          0                 7           2             4    7     1       0.5264997792E-03       4    7    1         0.2789005919E-01      0.4969482150E-01
          0                 8           2             4    7     1       0.2083492967E-03       4    7    1         0.1104446867E-01      0.1944161572E-01
          0                 9           1             4    7     1       0.8238348592E-04       4    7    1         0.4369809562E-02      0.7609121078E-02

    ------------------------------------------------
       NWT REQUIRED            9 OUTER ITERATIONS 
       AND A TOTAL OF         17 INNER ITERATIONS.
    ------------------------------------------------

 NO OUTPUT CONTROL FOR STRESS PERIOD   11   TIME STEP    5
 
 SOLVING FOR HEAD 
                                                   Max.-Head-Change                         Max.-Flux-Residual
  Residual-Control   Outer-Iter.   Inner-Iter.     Column Row Layer    Maximum-Head-Change  Column Row Layer    Maximum-Flux-Residual          L2-NORM 
          0                 1           2             4    6     1       0.1353955345E+00       4    6    1         0.7157796843E+01      0.1498890552E+02
          0                 2           2             4    6     1       0.5320499583E-01       4    6    1         0.2841637599E+01      0.4971511502E+01
          0                 3           2             4    6     1       0.2087643555E-01       4    6    1         0.1113896736E+01      0.1868176192E+01
          0                 4           2             4    6     1       0.8180617060E-02       4    6    1         0.4370893638E+00      0.7134131808E+00
          0                 5           2             4    6     1       0.3201840988E-02       4    6    1         0.1712265497E+00      0.2726628113E+00
          0                 6           2             4    6     1       0.1251839133E-02       4    6    1         0.6700141725E-01      0.1042970615E+00
          0                 7           2             4    6     1       0.4889642454E-03       4    6    1         0.2619027458E-01      0.3992283654E-01
          0                 8           2             4    6     1       0.1908204201E-03       4    6    1         0.1022786191E-01      0.1529137708E-01
          0                 9           1             4    6     1       0.7440923367E-04       4    6    1         0.3990768485E-02      0.5860319142E-02

    ------------------------------------------------
       NWT REQUIRED            9 OUTER ITERATIONS 
       AND A TOTAL OF         17 INNER ITERATIONS.
    ------------------------------------------------

 NO OUTPUT CONTROL FOR STRESS PERIOD   11   TIME STEP    6
 
 SOLVING FOR HEAD 
                                                   Max.-Head-Change                         Max.-Flux-Residual
  Residual-Control   Outer-Iter.   Inner-Iter.     Column Row Layer    Maximum-Head-Change  Column Row Layer    Maximum-Flux-Residual          L2-NORM 
          0                 1           2             4    6     1       0.1291753232E+00       4    6    1         0.6883718496E+01      0.1332231756E+02
          0                 2           2             4    6     1       0.5026821790E-01       4    6    1         0.2705606321E+01      0.4215773454E+01
          0                 3           2             4    6     1       0.1955369417E-01       4    6    1         0.1050343352E+01      0.1579962705E+01
          0                 4           2             4    6     1       0.7603206101E-02       4    6    1         0.4086906623E+00      0.6049003723E+00
          0                 5           2             4    6     1       0.2955325978E-02       4    6    1         0.1588957540E+00      0.2317104908E+00
          0                 6           2             4    6     1       0.1148319584E-02       4    6    1         0.6175764235E-01      0.8880335058E-01
          0                 7           2             4    6     1       0.4460428206E-03       4    6    1         0.2399481321E-01      0.3404815644E-01
          0                 8           2             4    6     1       0.1732024240E-03       4    6    1         0.9319704305E-02      0.1305962457E-01
          0                 9           1             4    6     1       0.6723603944E-04       4    6    1         0.3618694631E-02      0.5011065919E-02

    ------------------------------------------------
       NWT REQUIRED            9 OUTER ITERATIONS 
       AND A TOTAL OF         17 INNER ITERATIONS.
    ------------------------------------------------

 NO OUTPUT CONTROL FOR STRESS PERIOD   11   TIME STEP    7
 
 SOLVING FOR HEAD 
                                                   Max.-Head-Change                         Max.-Flux-Residual
  Residual-Control   Outer-Iter.   Inner-Iter.     Column Row Layer    Maximum-Head-Change  Column Row Layer    Maximum-Flux-Residual          L2-NORM 
          0                 1           2             4    6     1       0.1227121594E+00       4    6    1         0.6529224322E+01      0.1311021693E+02
          0                 2           2             4    6     1       0.4780346441E-01       4    6    1         0.2571245894E+01      0.4108813675E+01
          0                 3           2             4    6     1       0.1861285522E-01       4    6    1         0.9990256297E+00      0.1537220526E+01
          0                 4           2             4    6     1       0.7243756166E-02       4    6    1         0.3891026049E+00      0.5882274840E+00
          0                 5           2             4    6     1       0.2817886128E-02       4    6    1         0.1514105292E+00      0.2252142549E+00
          0                 6           2             4    6     1       0.1095728693E-02       4    6    1         0.5889511291E-01      0.8627402826E-01
          0                 7           2             4    6     1       0.4259052776E-03       4    6    1         0.2289930904E-01      0.3306397068E-01
          0                 8           2             4    6     1       0.1654866961E-03       4    6    1         0.8900166877E-02      0.1267689020E-01
          0                 9           1             4    6     1       0.6427802741E-04       4    6    1         0.3457927597E-02      0.4862307079E-02

    ------------------------------------------------
       NWT REQUIRED            9 OUTER ITERATIONS 
       AND A TOTAL OF         17 INNER ITERATIONS.
    ------------------------------------------------

 NO OUTPUT CONTROL FOR STRESS PERIOD   11   TIME STEP    8
 
 SOLVING FOR HEAD 
                                                   Max.-Head-Change                         Max.-Flux-Residual
  Residual-Control   Outer-Iter.   Inner-Iter.     Column Row Layer    Maximum-Head-Change  Column Row Layer    Maximum-Flux-Residual          L2-NORM 
          0                 1           2             4    7     1       0.8614300124E-01       4    7    1         0.4512975094E+01      0.1201510797E+02
          0                 2           2             4    7     1       0.3256988702E-01       4    7    1         0.1714454222E+01      0.3493145340E+01
          0                 3           2             4    7     1       0.1230777685E-01       4    7    1         0.6474510658E+00      0.1265735944E+01
          0                 4           2             4    7     1       0.4648583847E-02       4    7    1         0.2446817817E+00      0.4727660887E+00
          0                 5           2             4    7     1       0.1754887651E-02       4    7    1         0.9240345211E-01      0.1766794208E+00
          0                 6           2             4    7     1       0.6621792763E-03       4    7    1         0.3487978517E-01      0.6605034627E-01
          0                 7           2             4    7     1       0.2497522313E-03       4    7    1         0.1316006510E-01      0.2469745644E-01
          0                 8           1             4    7     1       0.9415868896E-04       4    7    1         0.4963087702E-02      0.9236443591E-02

    ------------------------------------------------
       NWT REQUIRED            8 OUTER ITERATIONS 
       AND A TOTAL OF         15 INNER ITERATIONS.
    ------------------------------------------------

 NO OUTPUT CONTROL FOR STRESS PERIOD   11   TIME STEP    9
 
 SOLVING FOR HEAD 
                                                   Max.-Head-Change                         Max.-Flux-Residual
  Residual-Control   Outer-Iter.   Inner-Iter.     Column Row Layer    Maximum-Head-Change  Column Row Layer    Maximum-Flux-Residual          L2-NORM 
          0                 1           2             4    7     1       0.8454986676E-01       4    7    1         0.4433507243E+01      0.1161028391E+02
          0                 2           2             4    7     1       0.3192608100E-01       4    7    1         0.1682346914E+01      0.3301679652E+01
          0                 3           2             4    7     1       0.1204841688E-01       4    7    1         0.6344759652E+00      0.1194569035E+01
          0                 4           2             4    7     1       0.4544493727E-02       4    7    1         0.2394585849E+00      0.4467185918E+00
          0                 5           2             4    7     1       0.1713283123E-02       4    7    1         0.9030881274E-01      0.1671191307E+00
          0                 6           2             4    7     1       0.6456192369E-03       4    7    1         0.3404325707E-01      0.6252876587E-01
          0                 7           2             4    7     1       0.2431877707E-03       4    7    1         0.1282737701E-01      0.2339647568E-01
          0                 8           1             4    7     1       0.9156678809E-04       4    7    1         0.4831317442E-02      0.8754669326E-02

    ------------------------------------------------
       NWT REQUIRED            8 OUTER ITERATIONS 
       AND A TOTAL OF         15 INNER ITERATIONS.
    ------------------------------------------------

 NO OUTPUT CONTROL FOR STRESS PERIOD   11   TIME STEP   10
 
 SOLVING FOR HEAD 
                                                   Max.-Head-Change                         Max.-Flux-Residual
  Residual-Control   Outer-Iter.   Inner-Iter.     Column Row Layer    Maximum-Head-Change  Column Row Layer    Maximum-Flux-Residual          L2-NORM 
          0                 1           2             4    7     1       0.8290746054E-01       4    7    1         0.4348048342E+01      0.1146092709E+02
          0                 2           2             4    7     1       0.3129735010E-01       4    7    1         0.1649600600E+01      0.3239074630E+01
          0                 3           2             4    7     1       0.1180845626E-01       4    7    1         0.6219438441E+00      0.1170717650E+01
          0                 4           2             4    7     1       0.4453143557E-02       4    7    1         0.2346788318E+00      0.4377780728E+00
          0                 5           2             4    7     1       0.1678582333E-02       4    7    1         0.8849012944E-01      0.1637694800E+00
          0                 6           2             4    7     1       0.6324619052E-03       4    7    1         0.3335270255E-01      0.6127392310E-01
          0                 7           2             4    7     1       0.2382068475E-03       4    7    1         0.1256564005E-01      0.2292641770E-01
          0                 8           1             4    7     1       0.8968373756E-04       4    7    1         0.4732264251E-02      0.8578596942E-02

    ------------------------------------------------
       NWT REQUIRED            8 OUTER ITERATIONS 
       AND A TOTAL OF         15 INNER ITERATIONS.
    ------------------------------------------------

 NO OUTPUT CONTROL FOR STRESS PERIOD   11   TIME STEP   11
 
 SOLVING FOR HEAD 
                                                   Max.-Head-Change                         Max.-Flux-Residual
  Residual-Control   Outer-Iter.   Inner-Iter.     Column Row Layer    Maximum-Head-Change  Column Row Layer    Maximum-Flux-Residual          L2-NORM 
          0                 1           2             4    7     1       0.8127757309E-01       4    7    1         0.4262954617E+01      0.1132021039E+02
          0                 2           2             4    7     1       0.3067581723E-01       4    7    1         0.1617132549E+01      0.3179796346E+01
          0                 3           2             4    7     1       0.1157202933E-01       4    7    1         0.6095648447E+00      0.1148065910E+01
          0                 4           2             4    7     1       0.4363396820E-02       4    7    1         0.2299726120E+00      0.4292680049E+00
          0                 5           2             4    7     1       0.1644575709E-02       4    7    1         0.8670440510E-01      0.1605756108E+00
          0                 6           2             4    7     1       0.6195959014E-03       4    7    1         0.3267630437E-01      0.6007582627E-01
          0                 7           2             4    7     1       0.2333455366E-03       4    7    1         0.1230981185E-01      0.2247714266E-01
          0                 8           1             4    7     1       0.8784900749E-04       4    7    1         0.4635627417E-02      0.8410173962E-02

    ------------------------------------------------
       NWT REQUIRED            8 OUTER ITERATIONS 
       AND A TOTAL OF         15 INNER ITERATIONS.
    ------------------------------------------------

 NO OUTPUT CONTROL FOR STRESS PERIOD   11   TIME STEP   12
 
 SOLVING FOR HEAD 
                                                   Max.-Head-Change                         Max.-Flux-Residual
  Residual-Control   Outer-Iter.   Inner-Iter.     Column Row Layer    Maximum-Head-Change  Column Row Layer    Maximum-Flux-Residual          L2-NORM 
          0                 1           2             4    7     1       0.7928627600E-01       4    7    1         0.4178683642E+01      0.1082049213E+02
          0                 2           2             4    7     1       0.2971725068E-01       4    7    1         0.1575492241E+01      0.2890773941E+01
          0                 3           2             4    7     1       0.1112440985E-01       4    7    1         0.5896290296E+00      0.1021285621E+01
          0                 4           2             4    7     1       0.4159780570E-02       4    7    1         0.2207123483E+00      0.3764601116E+00
          0                 5           2             4    7     1       0.1553983088E-02       4    7    1         0.8251124827E-01      0.1389610518E+00
          0                 6           2             4    7     1       0.5800351931E-03       4    7    1         0.3081800297E-01      0.5133569606E-01
          0                 7           2             4    7     1       0.2163405059E-03       4    7    1         0.1150103439E-01      0.1897586738E-01
          0                 8           1             4    7     1       0.8063702166E-04       4    7    1         0.4288976635E-02      0.7017877847E-02

    ------------------------------------------------
       NWT REQUIRED            8 OUTER ITERATIONS 
       AND A TOTAL OF         15 INNER ITERATIONS.
    ------------------------------------------------

 NO OUTPUT CONTROL FOR STRESS PERIOD   11   TIME STEP   13
 
 SOLVING FOR HEAD 
                                                   Max.-Head-Change                         Max.-Flux-Residual
  Residual-Control   Outer-Iter.   Inner-Iter.     Column Row Layer    Maximum-Head-Change  Column Row Layer    Maximum-Flux-Residual          L2-NORM 
          0                 1           2             4    7     1       0.7651704055E-01       4    7    1         0.4058326876E+01      0.1029804689E+02
          0                 2           2             4    7     1       0.2847142124E-01       4    7    1         0.1517904748E+01      0.2640559766E+01
          0                 3           2             4    7     1       0.1059166955E-01       4    7    1         0.5640662103E+00      0.9290500746E+00
          0                 4           2             4    7     1       0.3939379002E-02       4    7    1         0.2098748209E+00      0.3433631230E+00
          0                 5           2             4    7     1       0.1464882268E-02       4    7    1         0.7805382485E-01      0.1270522902E+00
          0                 6           2             4    7     1       0.5446197038E-03       4    7    1         0.2902363569E-01      0.4703408364E-01
          0                 7           2             4    7     1       0.2024435420E-03       4    7    1         0.1079007991E-01      0.1741676529E-01
          0                 8           1             4    7     1       0.7523827487E-04       4    7    1         0.4010684392E-02      0.6451096104E-02

    ------------------------------------------------
       NWT REQUIRED            8 OUTER ITERATIONS 
       AND A TOTAL OF         15 INNER ITERATIONS.
    ------------------------------------------------

 NO OUTPUT CONTROL FOR STRESS PERIOD   11   TIME STEP   14
 
 SOLVING FOR HEAD 
                                                   Max.-Head-Change                         Max.-Flux-Residual
  Residual-Control   Outer-Iter.   Inner-Iter.     Column Row Layer    Maximum-Head-Change  Column Row Layer    Maximum-Flux-Residual          L2-NORM 
          0                 1           2             4    6     1       0.6680778283E-01       4    6    1         0.3521503781E+01      0.9556958498E+01
          0                 2           2             4    6     1       0.2466288199E-01       4    6    1         0.1327487497E+01      0.2200316372E+01
          0                 3           2             4    6     1       0.9095743143E-02       4    6    1         0.4874681411E+00      0.7390340947E+00
          0                 4           2             4    6     1       0.3351603941E-02       4    6    1         0.1799019984E+00      0.2661975916E+00
          0                 5           2             4    6     1       0.1234019231E-02       4    6    1         0.6627184007E-01      0.9609482574E-01
          0                 6           2             4    6     1       0.4540219486E-03       4    6    1         0.2439668908E-01      0.3471995190E-01
          0                 7           2             4    6     1       0.1669340425E-03       4    6    1         0.8974691723E-02      0.1255274060E-01
          0                 8           1             4    6     1       0.6134099794E-04       4    6    1         0.3299343766E-02      0.4541111297E-02

    ------------------------------------------------
       NWT REQUIRED            8 OUTER ITERATIONS 
       AND A TOTAL OF         15 INNER ITERATIONS.
    ------------------------------------------------

 NO OUTPUT CONTROL FOR STRESS PERIOD   11   TIME STEP   15
 
 SOLVING FOR HEAD 
                                                   Max.-Head-Change                         Max.-Flux-Residual
  Residual-Control   Outer-Iter.   Inner-Iter.     Column Row Layer    Maximum-Head-Change  Column Row Layer    Maximum-Flux-Residual          L2-NORM 
          0                 1           2             4    6     1       0.6401741433E-01       4    6    1         0.3389371191E+01      0.9188714009E+01
          0                 2           2             4    6     1       0.2349618863E-01       4    6    1         0.1270547108E+01      0.2019722657E+01
          0                 3           2             4    6     1       0.8621081279E-02       4    6    1         0.4638302509E+00      0.6710180470E+00
          0                 4           2             4    6     1       0.3162263057E-02       4    6    1         0.1703325678E+00      0.2417126478E+00
          0                 5           2             4    6     1       0.1159604822E-02       4    6    1         0.6246865639E-01      0.8728664896E-01
          0                 6           2             4    6     1       0.4251107680E-03       4    6    1         0.2290618999E-01      0.3154601052E-01
          0                 7           2             4    6     1       0.1558039945E-03       4    6    1         0.8396899064E-02      0.1140742917E-01
          0                 8           1             4    6     1       0.5708788891E-04       4    6    1         0.3077307613E-02      0.4127328831E-02

    ------------------------------------------------
       NWT REQUIRED            8 OUTER ITERATIONS 
       AND A TOTAL OF         15 INNER ITERATIONS.
    ------------------------------------------------

 NO OUTPUT CONTROL FOR STRESS PERIOD   11   TIME STEP   16
 
 SOLVING FOR HEAD 
                                                   Max.-Head-Change                         Max.-Flux-Residual
  Residual-Control   Outer-Iter.   Inner-Iter.     Column Row Layer    Maximum-Head-Change  Column Row Layer    Maximum-Flux-Residual          L2-NORM 
          0                 1           2             3    7     1       0.6251436143E-01       4    6    1         0.3237548694E+01      0.9063628257E+01
          0                 2           2             4    6     1       0.2251309583E-01       4    6    1         0.1216413694E+01      0.1987678608E+01
          0                 3           2             4    6     1       0.8270012785E-02       4    6    1         0.4445273873E+00      0.6594561048E+00
          0                 4           2             4    6     1       0.3036717373E-02       4    6    1         0.1634368595E+00      0.2374029771E+00
          0                 5           2             4    6     1       0.1114649108E-02       4    6    1         0.6000193953E-01      0.8568081894E-01
          0                 6           2             4    6     1       0.4089930324E-03       4    6    1         0.2202265009E-01      0.3094862806E-01
          0                 7           2             4    6     1       0.1500187245E-03       4    6    1         0.8080044118E-02      0.1118554062E-01
          0                 8           1             4    6     1       0.5500910298E-04       4    6    1         0.2963548143E-02      0.4045031538E-02

    ------------------------------------------------
       NWT REQUIRED            8 OUTER ITERATIONS 
       AND A TOTAL OF         15 INNER ITERATIONS.
    ------------------------------------------------

 NO OUTPUT CONTROL FOR STRESS PERIOD   11   TIME STEP   17
 
 SOLVING FOR HEAD 
                                                   Max.-Head-Change                         Max.-Flux-Residual
  Residual-Control   Outer-Iter.   Inner-Iter.     Column Row Layer    Maximum-Head-Change  Column Row Layer    Maximum-Flux-Residual          L2-NORM 
          0                 1           2             3    7     1       0.6221146144E-01       4    5    1         0.3019177883E+01      0.8617004420E+01
          0                 2           2             4    7     1       0.1476204428E-01       4    7    1         0.7788157131E+00      0.1718991041E+01
          0                 3           2             4    7     1       0.5231165725E-02       4    7    1         0.2753818960E+00      0.5422674429E+00
          0                 4           2             4    7     1       0.1853162791E-02       4    7    1         0.9762255730E-01      0.1903170434E+00
          0                 5           2             4    7     1       0.6562957831E-03       4    7    1         0.3457906161E-01      0.6699419300E-01
          0                 6           2             4    7     1       0.2323614412E-03       4    7    1         0.1224542403E-01      0.2359011367E-01
          0                 7           1             4    7     1       0.8224583268E-04       4    7    1         0.4335224228E-02      0.8306889925E-02

    ------------------------------------------------
       NWT REQUIRED            7 OUTER ITERATIONS 
       AND A TOTAL OF         13 INNER ITERATIONS.
    ------------------------------------------------

 NO OUTPUT CONTROL FOR STRESS PERIOD   11   TIME STEP   18
 
 SOLVING FOR HEAD 
                                                   Max.-Head-Change                         Max.-Flux-Residual
  Residual-Control   Outer-Iter.   Inner-Iter.     Column Row Layer    Maximum-Head-Change  Column Row Layer    Maximum-Flux-Residual          L2-NORM 
          0                 1           2             3    7     1       0.6189928173E-01       4    5    1         0.2969439527E+01      0.8413193580E+01
          0                 2           2             4    7     1       0.1444451698E-01       4    7    1         0.7642085533E+00      0.1638651856E+01
          0                 3           2             4    7     1       0.5101706859E-02       4    7    1         0.2692447819E+00      0.5126833295E+00
          0                 4           2             4    7     1       0.1801863632E-02       4    7    1         0.9513870468E-01      0.1798845929E+00
          0                 5           2             4    7     1       0.6363820659E-03       4    7    1         0.3359999861E-01      0.6332545414E-01
          0                 6           2             4    7     1       0.2247501554E-03       4    7    1         0.1186685025E-01      0.2229957617E-01
          0                 7           1             4    7     1       0.7937160835E-04       4    7    1         0.4190964610E-02      0.7852822237E-02

    ------------------------------------------------
       NWT REQUIRED            7 OUTER ITERATIONS 
       AND A TOTAL OF         13 INNER ITERATIONS.
    ------------------------------------------------

 NO OUTPUT CONTROL FOR STRESS PERIOD   11   TIME STEP   19
 
 SOLVING FOR HEAD 
                                                   Max.-Head-Change                         Max.-Flux-Residual
  Residual-Control   Outer-Iter.   Inner-Iter.     Column Row Layer    Maximum-Head-Change  Column Row Layer    Maximum-Flux-Residual          L2-NORM 
          0                 1           2             3    7     1       0.6157881830E-01       4    5    1         0.2908991718E+01      0.8316385178E+01
          0                 2           2             4    7     1       0.1418306494E-01       4    7    1         0.7498841968E+00      0.1628959137E+01
          0                 3           2             4    7     1       0.5013547681E-02       4    7    1         0.2644211618E+00      0.5106367082E+00
          0                 4           2             4    7     1       0.1772111155E-02       4    7    1         0.9351169579E-01      0.1791769767E+00
          0                 5           2             4    7     1       0.6263321925E-03       4    7    1         0.3305080407E-01      0.6307453407E-01
          0                 6           2             4    7     1       0.2213524790E-03       4    7    1         0.1168130410E-01      0.2221056371E-01
          0                 7           1             4    7     1       0.7822189565E-04       4    7    1         0.4128222210E-02      0.7821261462E-02

    ------------------------------------------------
       NWT REQUIRED            7 OUTER ITERATIONS 
       AND A TOTAL OF         13 INNER ITERATIONS.
    ------------------------------------------------

 NO OUTPUT CONTROL FOR STRESS PERIOD   11   TIME STEP   20
 
 SOLVING FOR HEAD 
                                                   Max.-Head-Change                         Max.-Flux-Residual
  Residual-Control   Outer-Iter.   Inner-Iter.     Column Row Layer    Maximum-Head-Change  Column Row Layer    Maximum-Flux-Residual          L2-NORM 
          0                 1           2             3    7     1       0.6125268672E-01       4    5    1         0.2851455186E+01      0.8223715714E+01
          0                 2           2             4    7     1       0.1394253143E-01       4    7    1         0.7367277759E+00      0.1619287482E+01
          0                 3           2             4    7     1       0.4932257922E-02       4    7    1         0.2599812647E+00      0.5085042508E+00
          0                 4           2             4    7     1       0.1744613515E-02       4    7    1         0.9201068131E-01      0.1784365133E+00
          0                 5           2             4    7     1       0.6170220711E-03       4    7    1         0.3254296201E-01      0.6281171887E-01
          0                 6           2             4    7     1       0.2181973537E-03       4    7    1         0.1150932294E-01      0.2211726355E-01
          0                 7           1             4    7     1       0.7715165824E-04       4    7    1         0.4069926905E-02      0.7788160198E-02

    ------------------------------------------------
       NWT REQUIRED            7 OUTER ITERATIONS 
       AND A TOTAL OF         13 INNER ITERATIONS.
    ------------------------------------------------

 NO OUTPUT CONTROL FOR STRESS PERIOD   11   TIME STEP   21
 
 SOLVING FOR HEAD 
                                                   Max.-Head-Change                         Max.-Flux-Residual
  Residual-Control   Outer-Iter.   Inner-Iter.     Column Row Layer    Maximum-Head-Change  Column Row Layer    Maximum-Flux-Residual          L2-NORM 
          0                 1           2             3    7     1       0.6092202164E-01       4    5    1         0.2796655922E+01      0.8134814323E+01
          0                 2           2             4    7     1       0.1372054234E-01       4    7    1         0.7246069634E+00      0.1609602357E+01
          0                 3           2             4    7     1       0.4857056173E-02       4    7    1         0.2558815187E+00      0.5062814743E+00
          0                 4           2             4    7     1       0.1719113562E-02       4    7    1         0.9062132120E-01      0.1776622453E+00
          0                 5           2             4    7     1       0.6083670992E-03       4    7    1         0.3207175358E-01      0.6253682079E-01
          0                 6           2             4    7     1       0.2152569517E-03       4    7    1         0.1134935430E-01      0.2201965854E-01
          0                 7           1             4    7     1       0.7615174581E-04       4    7    1         0.4015568087E-02      0.7753532931E-02

    ------------------------------------------------
       NWT REQUIRED            7 OUTER ITERATIONS 
       AND A TOTAL OF         13 INNER ITERATIONS.
    ------------------------------------------------

 NO OUTPUT CONTROL FOR STRESS PERIOD   11   TIME STEP   22
 
 SOLVING FOR HEAD 
                                                   Max.-Head-Change                         Max.-Flux-Residual
  Residual-Control   Outer-Iter.   Inner-Iter.     Column Row Layer    Maximum-Head-Change  Column Row Layer    Maximum-Flux-Residual          L2-NORM 
          0                 1           2             3    7     1       0.6058805214E-01       4    5    1         0.2744417759E+01      0.8049380159E+01
          0                 2           2             4    7     1       0.1352873448E-01       4    7    1         0.7139544302E+00      0.1599931605E+01
          0                 3           2             4    7     1       0.4793599813E-02       4    7    1         0.2523570832E+00      0.5039997122E+00
          0                 4           2             4    7     1       0.1698150926E-02       4    7    1         0.8945546341E-01      0.1768706298E+00
          0                 5           2             4    7     1       0.6014539322E-03       4    7    1         0.3168676007E-01      0.6225773510E-01
          0                 6           2             4    7     1       0.2129815662E-03       4    7    1         0.1122244074E-01      0.2192134053E-01
          0                 7           1             4    7     1       0.7540452056E-04       4    7    1         0.3973815736E-02      0.7718943253E-02

    ------------------------------------------------
       NWT REQUIRED            7 OUTER ITERATIONS 
       AND A TOTAL OF         13 INNER ITERATIONS.
    ------------------------------------------------

 NO OUTPUT CONTROL FOR STRESS PERIOD   11   TIME STEP   23
 
 SOLVING FOR HEAD 
                                                   Max.-Head-Change                         Max.-Flux-Residual
  Residual-Control   Outer-Iter.   Inner-Iter.     Column Row Layer    Maximum-Head-Change  Column Row Layer    Maximum-Flux-Residual          L2-NORM 
          0                 1           2             3    7     1       0.6025165207E-01       4    5    1         0.2694584643E+01      0.7967168005E+01
          0                 2           2             4    7     1       0.1333644694E-01       4    7    1         0.7035035560E+00      0.1590177455E+01
          0                 3           2             4    7     1       0.4728060014E-02       4    7    1         0.2488010134E+00      0.5016019818E+00
          0                 4           2             4    7     1       0.1675790933E-02       4    7    1         0.8824292006E-01      0.1760318907E+00
          0                 5           2             4    7     1       0.5938182476E-03       4    7    1         0.3127300045E-01      0.6195999546E-01
          0                 6           2             4    7     1       0.2103716227E-03       4    7    1         0.1108111596E-01      0.2181565050E-01
          0                 7           1             4    7     1       0.7451159012E-04       4    7    1         0.3925499488E-02      0.7681450693E-02

    ------------------------------------------------
       NWT REQUIRED            7 OUTER ITERATIONS 
       AND A TOTAL OF         13 INNER ITERATIONS.
    ------------------------------------------------

 NO OUTPUT CONTROL FOR STRESS PERIOD   11   TIME STEP   24
 
 SOLVING FOR HEAD 
                                                   Max.-Head-Change                         Max.-Flux-Residual
  Residual-Control   Outer-Iter.   Inner-Iter.     Column Row Layer    Maximum-Head-Change  Column Row Layer    Maximum-Flux-Residual          L2-NORM 
          0                 1           2             3    7     1       0.5991343902E-01       4    5    1         0.2647023240E+01      0.7887900883E+01
          0                 2           2             4    7     1       0.1316232735E-01       4    7    1         0.6940616754E+00      0.1580400364E+01
          0                 3           2             4    7     1       0.4668530403E-02       4    7    1         0.2455787504E+00      0.4991316684E+00
          0                 4           2             4    7     1       0.1655419186E-02       4    7    1         0.8714080317E-01      0.1751670731E+00
          0                 5           2             4    7     1       0.5868402808E-03       4    7    1         0.3089577134E-01      0.6165325995E-01
          0                 6           2             4    7     1       0.2079792408E-03       4    7    1         0.1095187547E-01      0.2170685815E-01
          0                 7           1             4    7     1       0.7369061862E-04       4    7    1         0.3881180458E-02      0.7642886946E-02

    ------------------------------------------------
       NWT REQUIRED            7 OUTER ITERATIONS 
       AND A TOTAL OF         13 INNER ITERATIONS.
    ------------------------------------------------

 NO OUTPUT CONTROL FOR STRESS PERIOD   11   TIME STEP   25
 
 SOLVING FOR HEAD 
                                                   Max.-Head-Change                         Max.-Flux-Residual
  Residual-Control   Outer-Iter.   Inner-Iter.     Column Row Layer    Maximum-Head-Change  Column Row Layer    Maximum-Flux-Residual          L2-NORM 
          0                 1           2             3    7     1       0.5957435598E-01       6    7    1         0.2603719479E+01      0.7811345396E+01
          0                 2           2             4    7     1       0.1299891448E-01       4    7    1         0.6852167492E+00      0.1570567256E+01
          0                 3           2             4    7     1       0.4612523063E-02       4    7    1         0.2425529722E+00      0.4965808648E+00
          0                 4           2             4    7     1       0.1636205471E-02       4    7    1         0.8610331604E-01      0.1742732816E+00
          0                 5           2             4    7     1       0.5802427822E-03       4    7    1         0.3053978777E-01      0.6133642685E-01
          0                 6           2             4    7     1       0.2057117651E-03       4    7    1         0.1082961399E-01      0.2159454549E-01
          0                 7           1             4    7     1       0.7291061807E-04       4    7    1         0.3839152169E-02      0.7603096717E-02

    ------------------------------------------------
       NWT REQUIRED            7 OUTER ITERATIONS 
       AND A TOTAL OF         13 INNER ITERATIONS.
    ------------------------------------------------

 NO OUTPUT CONTROL FOR STRESS PERIOD   11   TIME STEP   26
 
 SOLVING FOR HEAD 
                                                   Max.-Head-Change                         Max.-Flux-Residual
  Residual-Control   Outer-Iter.   Inner-Iter.     Column Row Layer    Maximum-Head-Change  Column Row Layer    Maximum-Flux-Residual          L2-NORM 
          0                 1           2             3    7     1       0.5923444868E-01       6    7    1         0.2564474724E+01      0.7737321340E+01
          0                 2           2             4    7     1       0.1284516488E-01       4    7    1         0.6769103136E+00      0.1560686185E+01
          0                 3           2             4    7     1       0.4559697012E-02       4    7    1         0.2397045589E+00      0.4939571003E+00
          0                 4           2             4    7     1       0.1618038476E-02       4    7    1         0.8512421184E-01      0.1733533278E+00
          0                 5           2             4    7     1       0.5739894566E-03       4    7    1         0.3020301098E-01      0.6101051101E-01
          0                 6           2             4    7     1       0.2035573756E-03       4    7    1         0.1071366694E-01      0.2147907882E-01
          0                 7           1             4    7     1       0.7216774475E-04       4    7    1         0.3799198277E-02      0.7562208711E-02

    ------------------------------------------------
       NWT REQUIRED            7 OUTER ITERATIONS 
       AND A TOTAL OF         13 INNER ITERATIONS.
    ------------------------------------------------

 NO OUTPUT CONTROL FOR STRESS PERIOD   11   TIME STEP   27
 
 SOLVING FOR HEAD 
                                                   Max.-Head-Change                         Max.-Flux-Residual
  Residual-Control   Outer-Iter.   Inner-Iter.     Column Row Layer    Maximum-Head-Change  Column Row Layer    Maximum-Flux-Residual          L2-NORM 
          0                 1           2             3    7     1       0.5889442965E-01       6    7    1         0.2526655543E+01      0.7665649929E+01
          0                 2           2             4    7     1       0.1269988601E-01       4    7    1         0.6690760251E+00      0.1550757376E+01
          0                 3           2             4    7     1       0.4509658830E-02       4    7    1         0.2370116111E+00      0.4912646722E+00
          0                 4           2             4    7     1       0.1600788455E-02       4    7    1         0.8419626705E-01      0.1724088365E+00
          0                 5           2             4    7     1       0.5680375301E-03       4    7    1         0.2988305886E-01      0.6067609545E-01
          0                 6           2             4    7     1       0.2015019776E-03       4    7    1         0.1060324909E-01      0.2136066692E-01
          0                 7           1             4    7     1       0.7145735711E-04       4    7    1         0.3761060072E-02      0.7520299852E-02

    ------------------------------------------------
       NWT REQUIRED            7 OUTER ITERATIONS 
       AND A TOTAL OF         13 INNER ITERATIONS.
    ------------------------------------------------

 NO OUTPUT CONTROL FOR STRESS PERIOD   11   TIME STEP   28
 
 SOLVING FOR HEAD 
                                                   Max.-Head-Change                         Max.-Flux-Residual
  Residual-Control   Outer-Iter.   Inner-Iter.     Column Row Layer    Maximum-Head-Change  Column Row Layer    Maximum-Flux-Residual          L2-NORM 
          0                 1           2             3    7     1       0.5855469728E-01       6    7    1         0.2490196694E+01      0.7596200579E+01
          0                 2           2             4    7     1       0.1256220635E-01       4    7    1         0.6616651076E+00      0.1540790390E+01
          0                 3           2             4    7     1       0.4462123344E-02       4    7    1         0.2344581539E+00      0.4885107179E+00
          0                 4           2             4    7     1       0.1584362177E-02       4    7    1         0.8331425570E-01      0.1714424088E+00
          0                 5           2             4    7     1       0.5623565569E-03       4    7    1         0.2957822333E-01      0.6033410249E-01
          0                 6           2             4    7     1       0.1995356386E-03       4    7    1         0.1049780272E-01      0.2123963612E-01
          0                 7           1             4    7     1       0.7077621845E-04       4    7    1         0.3724555641E-02      0.7477483968E-02

    ------------------------------------------------
       NWT REQUIRED            7 OUTER ITERATIONS 
       AND A TOTAL OF         13 INNER ITERATIONS.
    ------------------------------------------------

 NO OUTPUT CONTROL FOR STRESS PERIOD   11   TIME STEP   29
 
 SOLVING FOR HEAD 
                                                   Max.-Head-Change                         Max.-Flux-Residual
  Residual-Control   Outer-Iter.   Inner-Iter.     Column Row Layer    Maximum-Head-Change  Column Row Layer    Maximum-Flux-Residual          L2-NORM 
          0                 1           2             3    7     1       0.5821535448E-01       6    7    1         0.2455030047E+01      0.7528816798E+01
          0                 2           2             4    7     1       0.1243126185E-01       4    7    1         0.6546294679E+00      0.1530788750E+01
          0                 3           2             4    7     1       0.4416805670E-02       4    7    1         0.2320283223E+00      0.4857002331E+00
          0                 4           2             4    7     1       0.1568665776E-02       4    7    1         0.8247294784E-01      0.1704558686E+00
          0                 5           2             4    7     1       0.5569156265E-03       4    7    1         0.2928678132E-01      0.5998517471E-01
          0                 6           2             4    7     1       0.1976481883E-03       4    7    1         0.1039676057E-01      0.2111621260E-01
          0                 7           1             4    7     1       0.7012098529E-04       4    7    1         0.3689498403E-02      0.7433841724E-02

    ------------------------------------------------
       NWT REQUIRED            7 OUTER ITERATIONS 
       AND A TOTAL OF         13 INNER ITERATIONS.
    ------------------------------------------------

 NO OUTPUT CONTROL FOR STRESS PERIOD   11   TIME STEP   30



 STREAM LISTING     PERIOD     11   STEP       30

 LAYER ROW COL. STREAM  RCH.  FLOW INTO     FLOW TO   FLOW OUT OF   OVRLND.     DIRECT     STREAM       STREAM     STREAM     STREAM   STREAMBED  STREAMBED
                SEG.NO.  NO.  STRM. RCH.    AQUIFER    STRM. RCH.    RUNOFF     PRECIP       ET          HEAD       DEPTH      WIDTH   CONDCTNC.   GRADIENT

   1    1    1     1     1    2.6250E+01  2.5084E-01   2.5999E+01  0.000E+00  0.000E+00  0.000E+00  1.09424E+03  1.197E+00  1.328E+01  5.977E-02  1.399E+00
   1    2    2     1     2    2.5999E+01  3.8795E-01   2.5611E+01  0.000E+00  0.000E+00  0.000E+00  1.08925E+03  1.192E+00  1.322E+01  9.255E-02  1.397E+00
   1    3    3     1     3    2.5611E+01  3.3035E-01   2.5281E+01  0.000E+00  0.000E+00  0.000E+00  1.08361E+03  1.187E+00  1.315E+01  7.890E-02  1.396E+00
   1    3    4     1     4    2.5281E+01  3.0378E-01   2.4977E+01  0.000E+00  0.000E+00  0.000E+00  1.07859E+03  1.182E+00  1.309E+01  7.264E-02  1.394E+00
   1    4    5     2     1    2.2977E+01  3.2316E-01   2.2654E+01  0.000E+00  0.000E+00  0.000E+00  1.07308E+03  1.143E+00  1.200E+01  7.800E-02  1.381E+00
   1    5    6     2     2    2.2654E+01  2.4807E-01   2.2406E+01  0.000E+00  0.000E+00  0.000E+00  1.06764E+03  1.134E+00  1.200E+01  6.000E-02  1.378E+00
   1    6    6     2     3    2.2406E+01  2.4762E-01   2.2158E+01  0.000E+00  0.000E+00  0.000E+00  1.06292E+03  1.127E+00  1.200E+01  6.000E-02  1.376E+00
   1    7    6     2     4    2.2158E+01  2.4717E-01   2.1911E+01  0.000E+00  0.000E+00  0.000E+00  1.05819E+03  1.119E+00  1.200E+01  6.000E-02  1.373E+00
   1    8    6     2     5    2.1911E+01  2.4671E-01   2.1664E+01  0.000E+00  0.000E+00  0.000E+00  1.05347E+03  1.112E+00  1.200E+01  6.000E-02  1.371E+00
   1    3    5     3     1    2.0000E+00  2.8252E-01   1.7175E+00  0.000E+00  0.000E+00  0.000E+00  1.07555E+03  1.909E+00  9.636E+00  7.227E-02  1.955E+00
   1    3    6     3     2    1.7175E+00  2.4905E-01   1.4684E+00  0.000E+00  0.000E+00  0.000E+00  1.07264E+03  1.727E+00  8.909E+00  6.682E-02  1.864E+00
   1    3    7     3     3    1.4684E+00  1.9718E-01   1.2712E+00  0.000E+00  0.000E+00  0.000E+00  1.06987E+03  1.555E+00  8.218E+00  5.547E-02  1.777E+00
   1    4    8     3     4    1.2712E+00  2.2567E-01   1.0456E+00  0.000E+00  0.000E+00  0.000E+00  1.06682E+03  1.364E+00  7.455E+00  6.709E-02  1.682E+00
   1    5    8     3     5    1.0456E+00  1.5790E-01   8.8768E-01  0.000E+00  0.000E+00  0.000E+00  1.06362E+03  1.164E+00  6.655E+00  4.991E-02  1.582E+00
   1    6    8     3     6    8.8768E-01  5.5980E-02   8.3170E-01  0.000E+00  0.000E+00  0.000E+00  1.06158E+03  1.036E+00  6.145E+00  1.844E-02  1.518E+00
   1    5   10     4     1    1.0000E+01  9.0919E-02   9.9091E+00  0.000E+00  0.000E+00  0.000E+00  1.07836E+03  6.368E-01  1.000E+01  2.500E-02  1.212E+00
   1    5    9     4     2    9.9091E+00  1.8158E-01   9.7275E+00  0.000E+00  0.000E+00  0.000E+00  1.07154E+03  6.315E-01  1.000E+01  5.000E-02  1.211E+00
   1    6    8     4     3    9.7275E+00  1.2689E-01   9.6006E+00  0.000E+00  0.000E+00  0.000E+00  1.06381E+03  6.256E-01  1.000E+01  3.500E-02  1.209E+00
   1    6    8     5     1    1.0432E+01  2.2686E-01   1.0205E+01  0.000E+00  0.000E+00  0.000E+00  1.05868E+03  6.790E-01  1.542E+01  6.166E-02  1.226E+00
   1    7    7     5     2    1.0205E+01  2.7894E-01   9.9265E+00  0.000E+00  0.000E+00  0.000E+00  1.05417E+03  6.732E-01  1.519E+01  7.594E-02  1.224E+00
   1    8    7     5     3    9.9265E+00  1.9221E-01   9.7343E+00  0.000E+00  0.000E+00  0.000E+00  1.04992E+03  6.676E-01  1.497E+01  5.241E-02  1.223E+00
   1    8    6     5     4    9.7343E+00  1.3577E-01   9.5985E+00  0.000E+00  0.000E+00  0.000E+00  1.04691E+03  6.637E-01  1.482E+01  3.706E-02  1.221E+00
   1    9    6     6     1    3.1263E+01  2.6357E-01   3.0999E+01  0.000E+00  0.000E+00  0.000E+00  1.04412E+03  1.393E+00  1.200E+01  6.000E-02  1.464E+00
   1   10    7     6     2    3.0999E+01  2.6314E-01   3.0736E+01  0.000E+00  0.000E+00  0.000E+00  1.03957E+03  1.386E+00  1.200E+01  6.000E-02  1.462E+00
   1   11    7     6     3    3.0736E+01  2.6272E-01   3.0473E+01  0.000E+00  0.000E+00  0.000E+00  1.03502E+03  1.379E+00  1.200E+01  6.000E-02  1.460E+00
   1   12    7     6     4    3.0473E+01  2.6229E-01   3.0211E+01  0.000E+00  0.000E+00  0.000E+00  1.03046E+03  1.372E+00  1.200E+01  6.000E-02  1.457E+00
   1   13    7     6     5    3.0211E+01  5.4586E-03   3.0206E+01  0.000E+00  0.000E+00  0.000E+00  1.02728E+03  1.368E+00  1.200E+01  2.400E-02  7.581E-02
   1   14    9     7     1    1.5000E+02  1.3362E+00   1.4866E+02  0.000E+00  0.000E+00  0.000E+00  1.03987E+03  2.288E+00  5.529E+01  5.593E-01  7.964E-01
   1   13    8     7     2    1.4866E+02  1.8342E+00   1.4683E+02  0.000E+00  0.000E+00  0.000E+00  1.03478E+03  2.279E+00  5.526E+01  6.148E-01  9.945E-01
   1   13    7     7     3    1.4683E+02  1.4745E+00   1.4536E+02  0.000E+00  0.000E+00  0.000E+00  1.02969E+03  2.270E+00  5.522E+01  5.585E-01  8.801E-01
   1   13    6     8     1    1.7556E+02  9.5867E-01   1.7460E+02  0.000E+00  0.000E+00  0.000E+00  1.02486E+03  2.985E+00  4.328E+01  4.411E-01  7.245E-01
   1   13    5     8     2    1.7460E+02  2.1569E-01   1.7439E+02  0.000E+00  0.000E+00  0.000E+00  1.01861E+03  2.981E+00  4.323E+01  4.405E-01  1.632E-01
   1   13    4     8     3    1.7439E+02 -2.2842E+00   1.7667E+02  0.000E+00  0.000E+00  0.000E+00  1.01236E+03  2.988E+00  4.332E+01  4.415E+00 -1.725E-01
   1   13    3     8     4    1.7667E+02 -3.6031E+00   1.8027E+02  0.000E+00  0.000E+00  0.000E+00  1.00613E+03  3.007E+00  4.359E+01  4.442E+00 -2.704E-01
   1   13    2     8     5    1.8027E+02 -2.5640E+00   1.8284E+02  0.000E+00  0.000E+00  0.000E+00  9.99901E+02  3.026E+00  4.388E+01  4.471E+00 -1.912E-01
   1   13    1     8     6    1.8284E+02 -1.9665E+00   1.8480E+02  0.000E+00  0.000E+00  0.000E+00  9.94915E+02  3.040E+00  4.408E+01  2.695E+00 -2.432E-01
   1    8    6     9     1    0.0000E+00  0.0000E+00   0.0000E+00  0.000E+00  0.000E+00  0.000E+00  1.07875E+03  0.000E+00  4.000E+00  0.000E+00  1.000E+00
   1    8    5     9     2    0.0000E+00  0.0000E+00   0.0000E+00  0.000E+00  0.000E+00  0.000E+00  1.07825E+03  0.000E+00  4.000E+00  0.000E+00  1.000E+00





UNSATURATED ZONE PACKAGE VOLUMETRIC BUDGET FOR  TIME STEP    30 STRESS PERIOD   11
  ------------------------------------------------------------------------------



     CUMULATIVE VOLUMES      L**3       RATES FOR THIS TIME STEP      L**3/T
     ------------------                 ------------------------

           IN:                                      IN:
           ---                                      ---
        INFILTRATION =  2621107517.5309          INFILTRATION =           0.8475

          OUT:                                     OUT:
          ----                                     ----
              UZF ET =   428089841.2430                UZF ET =           0.8475
        UZF RECHARGE =  1717254538.4824          UZF RECHARGE =          29.1705

            IN - OUT =   475763137.8055              IN - OUT =         -29.1705

          STORAGE:                                 STORAGE:
          --------                                 --------
      STORAGE CHANGE =   476243198.3188        STORAGE CHANGE =         -29.1705

 PERCENT DISCREPANCY IS DIFFERENCE BETWEEN IN-OUT MINUS CHANGE IN STORAGE
 DIVIDED BY THE AVERAGE OF IN AND OUT TIMES 100

 PERCENT DISCREPANCY =          -0.00     PERCENT DISCREPANCY =           0.00






1
  VOLUMETRIC BUDGET FOR AGRICULTURAL FIELDS AT  END OF TIME STEP   30, STRESS PERIOD  11
  ------------------------------------------------------------------------------

     CUMULATIVE VOLUMES      L**3       RATES FOR THIS TIME STEP      L**3/T
     ------------------                 ------------------------

           IN:                                      IN:
           ---                                      ---
               AG WELLS  =  2251250432.0000                 AG WELLS  =           0.0000
      DIVERSION SEGMENTS =   347499584.0000        DIVERSION SEGMENTS =           0.0000
       IRRIGATION PONDS  =           0.0000         IRRIGATION PONDS  =           0.0000
           GW IRRIGATION =           0.0000             GW IRRIGATION =           0.0000
           SW IRRIGATION =           0.0000             SW IRRIGATION =           0.0000
        SYSTEM LOSSES GW =           0.0000          SYSTEM LOSSES GW =           0.0000
        SYSTEM LOSSES SW =           0.0000          SYSTEM LOSSES SW =           0.0000

                TOTAL IN =  2598749952.0000                  TOTAL IN =           0.0000

          OUT:                                     OUT:
          ----                                     ----
               AG WELLS  =           0.0000                 AG WELLS  =           0.0000
      DIVERSION SEGMENTS =           0.0000        DIVERSION SEGMENTS =           0.0000
       IRRIGATION PONDS  =           0.0000         IRRIGATION PONDS  =           0.0000
           GW IRRIGATION =  2251250432.0000             GW IRRIGATION =           0.0000
           SW IRRIGATION =   347506400.0000             SW IRRIGATION =           0.0000
        SYSTEM LOSSES GW =           0.0000          SYSTEM LOSSES GW =           0.0000
        SYSTEM LOSSES SW =           0.0000          SYSTEM LOSSES SW =           0.0000

               TOTAL OUT =  2598756864.0000                 TOTAL OUT =           0.0000

                IN - OUT =       -6912.0000                  IN - OUT =           0.0000

     PERCENT DISCREPANCY =          -0.00         PERCENT DISCREPANCY =           0.00



1
  VOLUMETRIC BUDGET FOR ENTIRE MODEL AT END OF TIME STEP   30, STRESS PERIOD  11
  ------------------------------------------------------------------------------

     CUMULATIVE VOLUMES      L**3       RATES FOR THIS TIME STEP      L**3/T
     ------------------                 ------------------------

           IN:                                      IN:
           ---                                      ---
             STORAGE     =  2392881920.0000               STORAGE     =           9.5335
       CONSTANT HEAD     =           0.0000         CONSTANT HEAD     =           0.0000
     HEAD DEP BOUNDS     =     7539614.5000       HEAD DEP BOUNDS     =           0.2858
      STREAM LEAKAGE     =   320517760.0000        STREAM LEAKAGE     =          11.8636
        UZF RECHARGE     =  1717254656.0000          UZF RECHARGE     =          29.1705
               GW ET     =           0.0000                 GW ET     =           0.0000
     SURFACE LEAKAGE     =           0.0000       SURFACE LEAKAGE     =           0.0000
           AG WELLS      =           0.0000             AG WELLS      =           0.0000

                TOTAL IN =  4438194176.0000                  TOTAL IN =          50.8534

          OUT:                                     OUT:
          ----                                     ----
             STORAGE     =  1895255168.0000               STORAGE     =          40.1387
       CONSTANT HEAD     =           0.0000         CONSTANT HEAD     =           0.0000
     HEAD DEP BOUNDS     =     7678759.0000       HEAD DEP BOUNDS     =           0.2905
      STREAM LEAKAGE     =   282779968.0000        STREAM LEAKAGE     =          10.4179
        UZF RECHARGE     =           0.0000          UZF RECHARGE     =           0.0000
               GW ET     =     1207612.8750                 GW ET     =           0.0000
     SURFACE LEAKAGE     =           0.0000       SURFACE LEAKAGE     =           0.0000
           AG WELLS      =  2251250432.0000             AG WELLS      =           0.0000

               TOTAL OUT =  4438171648.0000                 TOTAL OUT =          50.8470

                IN - OUT =       22528.0000                  IN - OUT =       6.3705E-03

     PERCENT DISCREPANCY =           0.00         PERCENT DISCREPANCY =           0.01






         TIME SUMMARY AT END OF TIME STEP   30 IN STRESS PERIOD   11
                    SECONDS     MINUTES      HOURS       DAYS        YEARS
                    -----------------------------------------------------------
   TIME STEP LENGTH  87667.      1461.1      24.352      1.0147     2.77799E-03
 STRESS PERIOD TIME 2.63000E+06  43833.      730.56      30.440     8.33397E-02
         TOTAL TIME 2.63864E+07 4.39773E+05  7329.5      305.40     0.83613    
1
1
                            STRESS PERIOD NO.   12, LENGTH =   2630000.    
                            -----------------------------------------------

                              NUMBER OF TIME STEPS =    30

                               MULTIPLIER FOR DELT =     1.000

                            INITIAL TIME STEP SIZE =   87666.66    

 REUSING NON-PARAMETER GHB CELLS FROM LAST STRESS PERIOD

      2 GHB CELLS

 REUSING STREAM SEGMENT DATA FROM LAST STRESS PERIOD



            AREAL INFILTRATION RATE
 READING ON UNIT   19 WITH FORMAT: (FREE)              

            1           2           3           4           5           6           7           8           9          10
 ........................................................................................................................
   1   1.0000E-10  2.0000E-10   0.000       0.000       0.000       0.000       0.000       0.000       0.000       0.000    
   2   2.0000E-10  1.0000E-10  2.0000E-10   0.000       0.000      8.0000E-10  8.0000E-10  5.0000E-10   0.000       0.000    
   3    0.000      5.0000E-10  1.0000E-10  1.0000E-10  8.0000E-10  8.0000E-10  5.0000E-10  5.0000E-10   0.000       0.000    
   4   8.0000E-10  5.0000E-10  1.0000E-10  1.0000E-10  1.0000E-10  1.0000E-10  1.0000E-10  1.0000E-10  2.0000E-10   0.000    
   5   8.0000E-10  5.0000E-10  1.0000E-10  1.0000E-10  1.0000E-10  1.0000E-10  1.0000E-10  1.0000E-10  1.0000E-10  1.0000E-10
   6   8.0000E-10  5.0000E-10  5.0000E-10  2.0000E-10  2.0000E-10  1.0000E-10  1.0000E-10  1.0000E-10  1.0000E-10  5.0000E-10
   7   8.0000E-10  5.0000E-10  5.0000E-10  2.0000E-10  2.0000E-10  1.0000E-10  1.0000E-10  2.0000E-10  2.0000E-10   0.000    
   8    0.000      5.0000E-10  5.0000E-10  2.0000E-10  2.0000E-10  1.0000E-10  1.0000E-10  2.0000E-10  5.0000E-10   0.000    
   9    0.000      5.0000E-10  5.0000E-10  2.0000E-10  2.0000E-10  1.0000E-10  1.0000E-10  2.0000E-10  5.0000E-10   0.000    
  10    0.000      5.0000E-10  5.0000E-10  2.0000E-10  2.0000E-10  1.0000E-10  1.0000E-10  2.0000E-10  5.0000E-10  8.0000E-10
  11    0.000      1.0000E-10  1.0000E-10  1.0000E-10  1.0000E-10  1.0000E-10  1.0000E-10  2.0000E-10  5.0000E-10   0.000    
  12   1.0000E-10  1.0000E-10  1.0000E-10  1.0000E-10  1.0000E-10  1.0000E-10  1.0000E-10  1.0000E-10  2.0000E-10   0.000    
  13   1.0000E-10  1.0000E-10  2.0000E-10  2.0000E-10  2.0000E-10  2.0000E-10  2.0000E-10  1.0000E-10  1.0000E-10   0.000    
  14    0.000      2.0000E-10  5.0000E-10  5.0000E-10  5.0000E-10  5.0000E-10  5.0000E-10  2.0000E-10  1.0000E-10   0.000    
  15    0.000       0.000      8.0000E-10  8.0000E-10  8.0000E-10  8.0000E-10   0.000       0.000       0.000       0.000    

                  ET RATE =  5.000000E-10

 USING ET EXTINCTION DEPTH FROM PREVIOUS STRESS PERIOD. CURRENT PERIOD IS:      12

 USING EXTINCTION WATER CONTENT FROM PREVIOUS STRESS PERIOD. CURRENT PERIOD IS:      12

 USING AIR ENTRY PRESSURE FROM PREVIOUS STRESS PERIOD. CURRENT PERIOD IS:      12

 USING ROOT PRESSURE HEAD FROM PREVIOUS STRESS PERIOD. CURRENT PERIOD IS:      12

 USING ROOT ACTIVITY FROM PREVIOUS STRESS PERIOD. CURRENT PERIOD IS:      12

 PROCESSING AG STRESS PERIOD DATA

 READING AG STRESS PERIOD DATA

 READING IRRIGATION SEGMENT

 READING IRRIGATION WELL

 READING SUPPLEMENTAL WELL

 NO IRRPOND OR REUSING IRRPOND DATA FROM LAST STRESS PERIOD

 END PROCESSING AG STRESS PERIOD DATA OPTIONS
 
 SOLVING FOR HEAD 
                                                   Max.-Head-Change                         Max.-Flux-Residual
  Residual-Control   Outer-Iter.   Inner-Iter.     Column Row Layer    Maximum-Head-Change  Column Row Layer    Maximum-Flux-Residual          L2-NORM 
          0                 1           2             3    7     1       0.5787718520E-01       6    7    1         0.2410421430E+01      0.7460342503E+01
          0                 2           2             4    7     1       0.1230625863E-01       4    7    1         0.6479256691E+00      0.1520520252E+01
          0                 3           2             4    7     1       0.4373437773E-02       4    7    1         0.2297074653E+00      0.4828141160E+00
          0                 4           2             4    7     1       0.1553608567E-02       4    7    1         0.8166739505E-01      0.1694430493E+00
          0                 5           2             4    7     1       0.5516839980E-03       4    7    1         0.2900705791E-01      0.5962719471E-01
          0                 6           2             4    7     1       0.1958291852E-03       4    7    1         0.1029955457E-01      0.2098966024E-01
          0                 7           1             4    7     1       0.6948810406E-04       4    7    1         0.3655695273E-02      0.7389117088E-02

    ------------------------------------------------
       NWT REQUIRED            7 OUTER ITERATIONS 
       AND A TOTAL OF         13 INNER ITERATIONS.
    ------------------------------------------------

 NO OUTPUT CONTROL FOR STRESS PERIOD   12   TIME STEP    1
 
 SOLVING FOR HEAD 
                                                   Max.-Head-Change                         Max.-Flux-Residual
  Residual-Control   Outer-Iter.   Inner-Iter.     Column Row Layer    Maximum-Head-Change  Column Row Layer    Maximum-Flux-Residual          L2-NORM 
          0                 1           2             3    7     1       0.5754019150E-01       6    7    1         0.2375857159E+01      0.7396525032E+01
          0                 2           2             4    7     1       0.1218662107E-01       4    7    1         0.6415207829E+00      0.1510390124E+01
          0                 3           2             4    7     1       0.4331837318E-02       4    7    1         0.2274851030E+00      0.4798810714E+00
          0                 4           2             4    7     1       0.1539133203E-02       4    7    1         0.8089428269E-01      0.1684131166E+00
          0                 5           2             4    7     1       0.5466437860E-03       4    7    1         0.2873801238E-01      0.5926331453E-01
          0                 6           2             4    7     1       0.1940731076E-03       4    7    1         0.1020586082E-01      0.2086107896E-01
          0                 7           1             4    7     1       0.6887589175E-04       4    7    1         0.3623046561E-02      0.7343692875E-02

    ------------------------------------------------
       NWT REQUIRED            7 OUTER ITERATIONS 
       AND A TOTAL OF         13 INNER ITERATIONS.
    ------------------------------------------------

 NO OUTPUT CONTROL FOR STRESS PERIOD   12   TIME STEP    2
 
 SOLVING FOR HEAD 
                                                   Max.-Head-Change                         Max.-Flux-Residual
  Residual-Control   Outer-Iter.   Inner-Iter.     Column Row Layer    Maximum-Head-Change  Column Row Layer    Maximum-Flux-Residual          L2-NORM 
          0                 1           2             3    7     1       0.5720434260E-01       6    7    1         0.2344546501E+01      0.7334127121E+01
          0                 2           2             4    7     1       0.1207166434E-01       4    7    1         0.6353764309E+00      0.1500246312E+01
          0                 3           2             4    7     1       0.4291780616E-02       4    7    1         0.2253486867E+00      0.4769101941E+00
          0                 4           2             4    7     1       0.1525166726E-02       4    7    1         0.8014951329E-01      0.1673698745E+00
          0                 5           2             4    7     1       0.5417712340E-03       4    7    1         0.2847830884E-01      0.5889487070E-01
          0                 6           2             4    7     1       0.1923722357E-03       4    7    1         0.1011524457E-01      0.2073093415E-01
          0                 7           1             4    7     1       0.6828184501E-04       4    7    1         0.3591411018E-02      0.7297731867E-02

    ------------------------------------------------
       NWT REQUIRED            7 OUTER ITERATIONS 
       AND A TOTAL OF         13 INNER ITERATIONS.
    ------------------------------------------------

 NO OUTPUT CONTROL FOR STRESS PERIOD   12   TIME STEP    3
 
 SOLVING FOR HEAD 
                                                   Max.-Head-Change                         Max.-Flux-Residual
  Residual-Control   Outer-Iter.   Inner-Iter.     Column Row Layer    Maximum-Head-Change  Column Row Layer    Maximum-Flux-Residual          L2-NORM 
          0                 1           2             3    7     1       0.5687030743E-01       6    7    1         0.2314278010E+01      0.7273440046E+01
          0                 2           2             4    7     1       0.1196064729E-01       4    7    1         0.6294686515E+00      0.1477137253E+01
          0                 3           2             4    7     1       0.4252491057E-02       4    7    1         0.2232828795E+00      0.4586439154E+00
          0                 4           2             4    7     1       0.1510999511E-02       4    7    1         0.7941603812E-01      0.1585572680E+00
          0                 5           2             4    7     1       0.5365476121E-03       4    7    1         0.2821267268E-01      0.5522251574E-01
          0                 6           2             4    7     1       0.1904034171E-03       4    7    1         0.1001682140E-01      0.1928989206E-01
          0                 7           1             4    7     1       0.6752567954E-04       4    7    1         0.3554144952E-02      0.6748913640E-02

    ------------------------------------------------
       NWT REQUIRED            7 OUTER ITERATIONS 
       AND A TOTAL OF         13 INNER ITERATIONS.
    ------------------------------------------------

 NO OUTPUT CONTROL FOR STRESS PERIOD   12   TIME STEP    4
 
 SOLVING FOR HEAD 
                                                   Max.-Head-Change                         Max.-Flux-Residual
  Residual-Control   Outer-Iter.   Inner-Iter.     Column Row Layer    Maximum-Head-Change  Column Row Layer    Maximum-Flux-Residual          L2-NORM 
          0                 1           2             3    7     1       0.5653744886E-01       6    7    1         0.2284927828E+01      0.7198818777E+01
          0                 2           2             4    7     1       0.1183003378E-01       4    7    1         0.6232062838E+00      0.1414100536E+01
          0                 3           2             4    7     1       0.4199209899E-02       4    7    1         0.2207836213E+00      0.4356970054E+00
          0                 4           2             4    7     1       0.1489153036E-02       4    7    1         0.7839112444E-01      0.1502894108E+00
          0                 5           2             4    7     1       0.5276692115E-03       4    7    1         0.2779243653E-01      0.5230783473E-01
          0                 6           2             4    7     1       0.1868455117E-03       4    7    1         0.9846409438E-02      0.1826921323E-01
          0                 7           1             4    7     1       0.6612112495E-04       4    7    1         0.3486055300E-02      0.6393153300E-02

    ------------------------------------------------
       NWT REQUIRED            7 OUTER ITERATIONS 
       AND A TOTAL OF         13 INNER ITERATIONS.
    ------------------------------------------------

 NO OUTPUT CONTROL FOR STRESS PERIOD   12   TIME STEP    5
 
 SOLVING FOR HEAD 
                                                   Max.-Head-Change                         Max.-Flux-Residual
  Residual-Control   Outer-Iter.   Inner-Iter.     Column Row Layer    Maximum-Head-Change  Column Row Layer    Maximum-Flux-Residual          L2-NORM 
          0                 1           2             3    7     1       0.5620523248E-01       6    7    1         0.2254049147E+01      0.7047612755E+01
          0                 2           2             4    7     1       0.1168981869E-01       4    7    1         0.6162098556E+00      0.1374233462E+01
          0                 3           2             4    7     1       0.4146554909E-02       4    7    1         0.2181280372E+00      0.4243799097E+00
          0                 4           2             4    7     1       0.1469615590E-02       4    7    1         0.7739682789E-01      0.1469192907E+00
          0                 5           2             4    7     1       0.5204847495E-03       4    7    1         0.2742438773E-01      0.5124831448E-01
          0                 6           2             4    7     1       0.1842217588E-03       4    7    1         0.9711310075E-02      0.1792290674E-01
          0                 7           1             4    7     1       0.6516811884E-04       4    7    1         0.3436786061E-02      0.6276927351E-02

    ------------------------------------------------
       NWT REQUIRED            7 OUTER ITERATIONS 
       AND A TOTAL OF         13 INNER ITERATIONS.
    ------------------------------------------------

 NO OUTPUT CONTROL FOR STRESS PERIOD   12   TIME STEP    6
 
 SOLVING FOR HEAD 
                                                   Max.-Head-Change                         Max.-Flux-Residual
  Residual-Control   Outer-Iter.   Inner-Iter.     Column Row Layer    Maximum-Head-Change  Column Row Layer    Maximum-Flux-Residual          L2-NORM 
          0                 1           2             3    7     1       0.5587280376E-01       6    7    1         0.2222141751E+01      0.6914730602E+01
          0                 2           2             4    7     1       0.1154446097E-01       4    7    1         0.6087960633E+00      0.1342600577E+01
          0                 3           2             4    7     1       0.4093226231E-02       4    7    1         0.2153911451E+00      0.4153668834E+00
          0                 4           2             4    7     1       0.1450200040E-02       4    7    1         0.7639454312E-01      0.1441824305E+00
          0                 5           2             4    7     1       0.5134572177E-03       4    7    1         0.2706005439E-01      0.5037396107E-01
          0                 6           2             4    7     1       0.1816896196E-03       4    7    1         0.9579594064E-02      0.1763380099E-01
          0                 7           1             4    7     1       0.6425900896E-04       4    7    1         0.3389370586E-02      0.6179134055E-02

    ------------------------------------------------
       NWT REQUIRED            7 OUTER ITERATIONS 
       AND A TOTAL OF         13 INNER ITERATIONS.
    ------------------------------------------------

 NO OUTPUT CONTROL FOR STRESS PERIOD   12   TIME STEP    7
 
 SOLVING FOR HEAD 
                                                   Max.-Head-Change                         Max.-Flux-Residual
  Residual-Control   Outer-Iter.   Inner-Iter.     Column Row Layer    Maximum-Head-Change  Column Row Layer    Maximum-Flux-Residual          L2-NORM 
          0                 1           2             3    7     1       0.5554040308E-01       6    7    1         0.2189619704E+01      0.6796760518E+01
          0                 2           2             4    7     1       0.1139586976E-01       4    7    1         0.6011424236E+00      0.1315387266E+01
          0                 3           2             4    7     1       0.4039293571E-02       4    7    1         0.2126008711E+00      0.4075188578E+00
          0                 4           2             4    7     1       0.1430739138E-02       4    7    1         0.7538314521E-01      0.1417512157E+00
          0                 5           2             4    7     1       0.5064663592E-03       4    7    1         0.2669554729E-01      0.4958536520E-01
          0                 6           2             4    7     1       0.1791870298E-03       4    7    1         0.9448772912E-02      0.1737028785E-01
          0                 7           1             4    7     1       0.6336557830E-04       4    7    1         0.3342572626E-02      0.6089377701E-02

    ------------------------------------------------
       NWT REQUIRED            7 OUTER ITERATIONS 
       AND A TOTAL OF         13 INNER ITERATIONS.
    ------------------------------------------------

 NO OUTPUT CONTROL FOR STRESS PERIOD   12   TIME STEP    8
 
 SOLVING FOR HEAD 
                                                   Max.-Head-Change                         Max.-Flux-Residual
  Residual-Control   Outer-Iter.   Inner-Iter.     Column Row Layer    Maximum-Head-Change  Column Row Layer    Maximum-Flux-Residual          L2-NORM 
          0                 1           2             3    7     1       0.5520762649E-01       6    7    1         0.2156813981E+01      0.6691206570E+01
          0                 2           2             4    7     1       0.1124614382E-01       4    7    1         0.5933728936E+00      0.1291814313E+01
          0                 3           2             4    7     1       0.3985394288E-02       4    7    1         0.2097950366E+00      0.4006350599E+00
          0                 4           2             4    7     1       0.1411424982E-02       4    7    1         0.7437410221E-01      0.1395755588E+00
          0                 5           2             4    7     1       0.4995694979E-03       4    7    1         0.2633431594E-01      0.4886934854E-01
          0                 6           2             4    7     1       0.1767308720E-03       4    7    1         0.9319873310E-02      0.1712872288E-01
          0                 7           1             4    7     1       0.6249270402E-04       4    7    1         0.3296693553E-02      0.6006590916E-02

    ------------------------------------------------
       NWT REQUIRED            7 OUTER ITERATIONS 
       AND A TOTAL OF         13 INNER ITERATIONS.
    ------------------------------------------------

 NO OUTPUT CONTROL FOR STRESS PERIOD   12   TIME STEP    9
 
 SOLVING FOR HEAD 
                                                   Max.-Head-Change                         Max.-Flux-Residual
  Residual-Control   Outer-Iter.   Inner-Iter.     Column Row Layer    Maximum-Head-Change  Column Row Layer    Maximum-Flux-Residual          L2-NORM 
          0                 1           2             3    7     1       0.5487416874E-01       4    5    1         0.2126081312E+01      0.6595977876E+01
          0                 2           2             4    7     1       0.1109659160E-01       4    7    1         0.5855669939E+00      0.1271224685E+01
          0                 3           2             4    7     1       0.3931908293E-02       4    7    1         0.2069969965E+00      0.3945455941E+00
          0                 4           2             4    7     1       0.1392365736E-02       4    7    1         0.7337416884E-01      0.1376127365E+00
          0                 5           2             4    7     1       0.4927965764E-03       4    7    1         0.2597827292E-01      0.4821449990E-01
          0                 6           2             4    7     1       0.1743290494E-03       4    7    1         0.9193420379E-02      0.1690578722E-01
          0                 7           1             4    7     1       0.6164236174E-04       4    7    1         0.3251869851E-02      0.5929901594E-02

    ------------------------------------------------
       NWT REQUIRED            7 OUTER ITERATIONS 
       AND A TOTAL OF         13 INNER ITERATIONS.
    ------------------------------------------------

 NO OUTPUT CONTROL FOR STRESS PERIOD   12   TIME STEP   10
 
 SOLVING FOR HEAD 
                                                   Max.-Head-Change                         Max.-Flux-Residual
  Residual-Control   Outer-Iter.   Inner-Iter.     Column Row Layer    Maximum-Head-Change  Column Row Layer    Maximum-Flux-Residual          L2-NORM 
          0                 1           2             3    7     1       0.5453641586E-01       4    5    1         0.2100390041E+01      0.6378458511E+01
          0                 2           2             4    7     1       0.1069622497E-01       4    7    1         0.5701362730E+00      0.1159489294E+01
          0                 3           2             4    7     1       0.3743572816E-02       4    7    1         0.1989599789E+00      0.3511120015E+00
          0                 4           2             4    7     1       0.1310180975E-02       4    7    1         0.6967154235E-01      0.1219520125E+00
          0                 5           2             4    7     1       0.4585320305E-03       4    7    1         0.2438208351E-01      0.4257744154E-01
          0                 6           2             4    7     1       0.1604736322E-03       4    7    1         0.8533100673E-02      0.1487250217E-01
          0                 7           1             4    7     1       0.5616093336E-04       4    7    1         0.2986344868E-02      0.5195781440E-02

    ------------------------------------------------
       NWT REQUIRED            7 OUTER ITERATIONS 
       AND A TOTAL OF         13 INNER ITERATIONS.
    ------------------------------------------------

 NO OUTPUT CONTROL FOR STRESS PERIOD   12   TIME STEP   11
 
 SOLVING FOR HEAD 
                                                   Max.-Head-Change                         Max.-Flux-Residual
  Residual-Control   Outer-Iter.   Inner-Iter.     Column Row Layer    Maximum-Head-Change  Column Row Layer    Maximum-Flux-Residual          L2-NORM 
          0                 1           2             3    7     1       0.5417804758E-01       4    5    1         0.2075538780E+01      0.6316194580E+01
          0                 2           2             4    7     1       0.9900129496E-02       4    7    1         0.5377322475E+00      0.1099740789E+01
          0                 3           2             4    6     1       0.3426806453E-02       4    7    1         0.1831514889E+00      0.3163359598E+00
          0                 4           2             4    6     1       0.1199835206E-02       4    6    1         0.6379613442E-01      0.1064694163E+00
          0                 5           2             4    6     1       0.4198211295E-03       4    6    1         0.2232889148E-01      0.3636556586E-01
          0                 6           2             4    6     1       0.1468084112E-03       4    6    1         0.7811920546E-02      0.1249310311E-01
          0                 7           1             4    6     1       0.5131084629E-04       4    6    1         0.2731416379E-02      0.4307308995E-02

    ------------------------------------------------
       NWT REQUIRED            7 OUTER ITERATIONS 
       AND A TOTAL OF         13 INNER ITERATIONS.
    ------------------------------------------------

 NO OUTPUT CONTROL FOR STRESS PERIOD   12   TIME STEP   12
 
 SOLVING FOR HEAD 
                                                   Max.-Head-Change                         Max.-Flux-Residual
  Residual-Control   Outer-Iter.   Inner-Iter.     Column Row Layer    Maximum-Head-Change  Column Row Layer    Maximum-Flux-Residual          L2-NORM 
          0                 1           2             3    7     1       0.5378607732E-01       4    5    1         0.2051393493E+01      0.6328221323E+01
          0                 2           2             4    6     1       0.9664251701E-02       4    6    1         0.5181300562E+00      0.1106069915E+01
          0                 3           2             4    6     1       0.3377929274E-02       4    6    1         0.1795450312E+00      0.3100964754E+00
          0                 4           2             4    6     1       0.1179589297E-02       4    6    1         0.6285074454E-01      0.1018475333E+00
          0                 5           2             4    6     1       0.4116108944E-03       4    6    1         0.2193901089E-01      0.3424848386E-01
          0                 6           2             4    6     1       0.1435419700E-03       4    6    1         0.7654467011E-02      0.1165229803E-01
          0                 7           1             4    6     1       0.5003266081E-04       4    6    1         0.2669007362E-02      0.3993981707E-02

    ------------------------------------------------
       NWT REQUIRED            7 OUTER ITERATIONS 
       AND A TOTAL OF         13 INNER ITERATIONS.
    ------------------------------------------------

 NO OUTPUT CONTROL FOR STRESS PERIOD   12   TIME STEP   13
 
 SOLVING FOR HEAD 
                                                   Max.-Head-Change                         Max.-Flux-Residual
  Residual-Control   Outer-Iter.   Inner-Iter.     Column Row Layer    Maximum-Head-Change  Column Row Layer    Maximum-Flux-Residual          L2-NORM 
          0                 1           2             3    7     1       0.5336240224E-01       4    5    1         0.2027821573E+01      0.6125104395E+01
          0                 2           2             4    6     1       0.9521456454E-02       4    6    1         0.5116129491E+00      0.1031271187E+01
          0                 3           2             4    6     1       0.3311684756E-02       4    6    1         0.1767789198E+00      0.2729798497E+00
          0                 4           2             4    6     1       0.1148356215E-02       4    6    1         0.6154250752E-01      0.8670384816E-01
          0                 5           2             4    6     1       0.3972977650E-03       4    6    1         0.2132252942E-01      0.2844458120E-01
          0                 6           2             4    6     1       0.1372178637E-03       4    6    1         0.7373652349E-02      0.9492879615E-02
          0                 7           1             4    6     1       0.4733045484E-04       4    6    1         0.2545775127E-02      0.3202932894E-02

    ------------------------------------------------
       NWT REQUIRED            7 OUTER ITERATIONS 
       AND A TOTAL OF         13 INNER ITERATIONS.
    ------------------------------------------------

 NO OUTPUT CONTROL FOR STRESS PERIOD   12   TIME STEP   14
 
 SOLVING FOR HEAD 
                                                   Max.-Head-Change                         Max.-Flux-Residual
  Residual-Control   Outer-Iter.   Inner-Iter.     Column Row Layer    Maximum-Head-Change  Column Row Layer    Maximum-Flux-Residual          L2-NORM 
          0                 1           2             3    7     1       0.5240768780E-01       4    5    1         0.2004655738E+01      0.5994521753E+01
          0                 2           2             4    6     1       0.8851576002E-02       4    6    1         0.4868615710E+00      0.9790700010E+00
          0                 3           2             4    6     1       0.3004152063E-02       4    6    1         0.1632245062E+00      0.2564377571E+00
          0                 4           2             4    6     1       0.1022195193E-02       4    6    1         0.5553989847E-01      0.8069795238E-01
          0                 5           2             4    6     1       0.3485377992E-03       4    6    1         0.1890419731E-01      0.2614173616E-01
          0                 6           2             4    6     1       0.1190413210E-03       4    6    1         0.6448768351E-02      0.8607333072E-02
          0                 7           1             4    6     1       0.4071311690E-04       4    6    1         0.2203336601E-02      0.2868927006E-02

    ------------------------------------------------
       NWT REQUIRED            7 OUTER ITERATIONS 
       AND A TOTAL OF         13 INNER ITERATIONS.
    ------------------------------------------------

 NO OUTPUT CONTROL FOR STRESS PERIOD   12   TIME STEP   15
 
 SOLVING FOR HEAD 
                                                   Max.-Head-Change                         Max.-Flux-Residual
  Residual-Control   Outer-Iter.   Inner-Iter.     Column Row Layer    Maximum-Head-Change  Column Row Layer    Maximum-Flux-Residual          L2-NORM 
          0                 1           2             3    7     1       0.5122704518E-01       4    5    1         0.1980499605E+01      0.5945533047E+01
          0                 2           2             4    6     1       0.7892278002E-02       4    6    1         0.4450916589E+00      0.9367382481E+00
          0                 3           2             4    6     1       0.2601499952E-02       4    6    1         0.1444471571E+00      0.2290877169E+00
          0                 4           2             4    6     1       0.8621923078E-03       4    6    1         0.4778376586E-01      0.6699112944E-01
          0                 5           2             4    6     1       0.2870523569E-03       4    6    1         0.1585152425E-01      0.2029363924E-01
          0                 6           1             4    6     1       0.9593157183E-04       4    6    1         0.5282921006E-02      0.6287455136E-02

    ------------------------------------------------
       NWT REQUIRED            6 OUTER ITERATIONS 
       AND A TOTAL OF         11 INNER ITERATIONS.
    ------------------------------------------------

 NO OUTPUT CONTROL FOR STRESS PERIOD   12   TIME STEP   16
 
 SOLVING FOR HEAD 
                                                   Max.-Head-Change                         Max.-Flux-Residual
  Residual-Control   Outer-Iter.   Inner-Iter.     Column Row Layer    Maximum-Head-Change  Column Row Layer    Maximum-Flux-Residual          L2-NORM 
          0                 1           2             3    7     1       0.5009676016E-01       4    5    1         0.1953363835E+01      0.5735014447E+01
          0                 2           2             4    6     1       0.7166306373E-02       4    6    1         0.4046989628E+00      0.8811631049E+00
          0                 3           2             4    6     1       0.2360599414E-02       4    6    1         0.1311148266E+00      0.2116802352E+00
          0                 4           2             4    6     1       0.7818977702E-03       4    6    1         0.4335328658E-01      0.6164207702E-01
          0                 5           2             4    6     1       0.2601910246E-03       4    6    1         0.1437340630E-01      0.1861814310E-01
          0                 6           1             4    6     1       0.8691841820E-04       4    6    1         0.4788041138E-02      0.5751487611E-02

    ------------------------------------------------
       NWT REQUIRED            6 OUTER ITERATIONS 
       AND A TOTAL OF         11 INNER ITERATIONS.
    ------------------------------------------------

 NO OUTPUT CONTROL FOR STRESS PERIOD   12   TIME STEP   17
 
 SOLVING FOR HEAD 
                                                   Max.-Head-Change                         Max.-Flux-Residual
  Residual-Control   Outer-Iter.   Inner-Iter.     Column Row Layer    Maximum-Head-Change  Column Row Layer    Maximum-Flux-Residual          L2-NORM 
          0                 1           2             3    7     1       0.4901380451E-01       4    5    1         0.1923823308E+01      0.5519125880E+01
          0                 2           2             4    6     1       0.6534465411E-02       4    6    1         0.3691691667E+00      0.8213575034E+00
          0                 3           2             4    6     1       0.2153383919E-02       4    6    1         0.1195483257E+00      0.1931213726E+00
          0                 4           2             4    6     1       0.7134983815E-03       4    6    1         0.3955220507E-01      0.5618439929E-01
          0                 5           2             4    6     1       0.2374904296E-03       4    6    1         0.1311695530E-01      0.1698432710E-01
          0                 6           1             4    6     1       0.7935054450E-04       4    6    1         0.4370545531E-02      0.5250227630E-02

    ------------------------------------------------
       NWT REQUIRED            6 OUTER ITERATIONS 
       AND A TOTAL OF         11 INNER ITERATIONS.
    ------------------------------------------------

 NO OUTPUT CONTROL FOR STRESS PERIOD   12   TIME STEP   18
 
 SOLVING FOR HEAD 
                                                   Max.-Head-Change                         Max.-Flux-Residual
  Residual-Control   Outer-Iter.   Inner-Iter.     Column Row Layer    Maximum-Head-Change  Column Row Layer    Maximum-Flux-Residual          L2-NORM 
          0                 1           2             3    7     1       0.4797474018E-01       4    5    1         0.1892408143E+01      0.5323770767E+01
          0                 2           2             4    6     1       0.5980976087E-02       4    6    1         0.3380054078E+00      0.7681586170E+00
          0                 3           2             4    6     1       0.1972075715E-02       4    6    1         0.1094198235E+00      0.1764830229E+00
          0                 4           2             4    6     1       0.6537119792E-03       4    6    1         0.3622720730E-01      0.5130027797E-01
          0                 5           2             4    6     1       0.2176659692E-03       4    6    1         0.1201897287E-01      0.1552772148E-01
          0                 6           1             4    6     1       0.7274654973E-04       4    6    1         0.4006018304E-02      0.4805255450E-02

    ------------------------------------------------
       NWT REQUIRED            6 OUTER ITERATIONS 
       AND A TOTAL OF         11 INNER ITERATIONS.
    ------------------------------------------------

 NO OUTPUT CONTROL FOR STRESS PERIOD   12   TIME STEP   19
 
 SOLVING FOR HEAD 
                                                   Max.-Head-Change                         Max.-Flux-Residual
  Residual-Control   Outer-Iter.   Inner-Iter.     Column Row Layer    Maximum-Head-Change  Column Row Layer    Maximum-Flux-Residual          L2-NORM 
          0                 1           2             3    7     1       0.4697716573E-01       4    5    1         0.1859585985E+01      0.5146263810E+01
          0                 2           2             4    6     1       0.5496546771E-02       4    6    1         0.3106911814E+00      0.7207906742E+00
          0                 3           2             4    6     1       0.1813596157E-02       4    6    1         0.1005586769E+00      0.1615498863E+00
          0                 4           2             4    6     1       0.6015131149E-03       4    6    1         0.3332169341E-01      0.4692525853E-01
          0                 5           2             4    6     1       0.2003746283E-03       4    6    1         0.1106058409E-01      0.1422828411E-01
          0                 6           1             4    6     1       0.6699130404E-04       4    6    1         0.3687980673E-02      0.4410046343E-02

    ------------------------------------------------
       NWT REQUIRED            6 OUTER ITERATIONS 
       AND A TOTAL OF         11 INNER ITERATIONS.
    ------------------------------------------------

 NO OUTPUT CONTROL FOR STRESS PERIOD   12   TIME STEP   20
 
 SOLVING FOR HEAD 
                                                   Max.-Head-Change                         Max.-Flux-Residual
  Residual-Control   Outer-Iter.   Inner-Iter.     Column Row Layer    Maximum-Head-Change  Column Row Layer    Maximum-Flux-Residual          L2-NORM 
          0                 1           2             3    7     1       0.4601105206E-01       4    5    1         0.1825770861E+01      0.5103474028E+01
          0                 2           2             4    6     1      -0.6922543003E-02       4    6    1        -0.3668083372E+00      0.7236120203E+00
          0                 3           2             4    6     1      -0.1918228267E-02       4    6    1        -0.1028848962E+00      0.1600991185E+00
          0                 4           2             4    6     1      -0.5317648796E-03       4    6    1        -0.2842991421E-01      0.4373938392E-01
          0                 5           2             4    6     1      -0.1474745454E-03       4    6    1        -0.7884962537E-02      0.1223960390E-01
          0                 6           1             4    6     1      -0.4091539096E-04       4    6    1        -0.2186938798E-02      0.3426746617E-02

    ------------------------------------------------
       NWT REQUIRED            6 OUTER ITERATIONS 
       AND A TOTAL OF         11 INNER ITERATIONS.
    ------------------------------------------------

 NO OUTPUT CONTROL FOR STRESS PERIOD   12   TIME STEP   21
 
 SOLVING FOR HEAD 
                                                   Max.-Head-Change                         Max.-Flux-Residual
  Residual-Control   Outer-Iter.   Inner-Iter.     Column Row Layer    Maximum-Head-Change  Column Row Layer    Maximum-Flux-Residual          L2-NORM 
          0                 1           2             3    7     1       0.4506060279E-01       4    6    1        -0.1782655468E+01      0.5091152970E+01
          0                 2           2             4    6     1      -0.8935528512E-02       4    6    1        -0.4769899728E+00      0.7668033662E+00
          0                 3           2             4    6     1      -0.2460216901E-02       4    6    1        -0.1324871899E+00      0.1769841423E+00
          0                 4           2             4    6     1      -0.6777898060E-03       4    6    1        -0.3640455127E-01      0.4845153630E-01
          0                 5           2             4    6     1      -0.1868430899E-03       4    6    1        -0.1003373197E-01      0.1351874555E-01
          0                 6           1             4    6     1      -0.5153613506E-04       4    6    1        -0.2766355356E-02      0.3774352267E-02

    ------------------------------------------------
       NWT REQUIRED            6 OUTER ITERATIONS 
       AND A TOTAL OF         11 INNER ITERATIONS.
    ------------------------------------------------

 NO OUTPUT CONTROL FOR STRESS PERIOD   12   TIME STEP   22
 
 SOLVING FOR HEAD 
                                                   Max.-Head-Change                         Max.-Flux-Residual
  Residual-Control   Outer-Iter.   Inner-Iter.     Column Row Layer    Maximum-Head-Change  Column Row Layer    Maximum-Flux-Residual          L2-NORM 
          0                 1           2             3    7     1       0.4412845692E-01       4    5    1         0.1657595449E+01      0.4917791045E+01
          0                 2           2             4    6     1      -0.8307424691E-02       4    6    1        -0.4432007068E+00      0.7284350095E+00
          0                 3           2             4    6     1      -0.2288395614E-02       4    6    1        -0.1231973894E+00      0.1661780565E+00
          0                 4           2             4    6     1      -0.6307500880E-03       4    6    1        -0.3386614417E-01      0.4545298469E-01
          0                 5           2             4    6     1      -0.1739550509E-03       4    6    1        -0.9338538638E-02      0.1268608747E-01
          0                 6           1             4    6     1      -0.4800238541E-04       4    6    1        -0.2575847234E-02      0.3542953966E-02

    ------------------------------------------------
       NWT REQUIRED            6 OUTER ITERATIONS 
       AND A TOTAL OF         11 INNER ITERATIONS.
    ------------------------------------------------

 NO OUTPUT CONTROL FOR STRESS PERIOD   12   TIME STEP   23
 
 SOLVING FOR HEAD 
                                                   Max.-Head-Change                         Max.-Flux-Residual
  Residual-Control   Outer-Iter.   Inner-Iter.     Column Row Layer    Maximum-Head-Change  Column Row Layer    Maximum-Flux-Residual          L2-NORM 
          0                 1           2             3    7     1       0.4321610174E-01       4    5    1         0.1576804224E+01      0.4755673975E+01
          0                 2           2             4    6     1      -0.7722606607E-02       4    6    1        -0.4117586665E+00      0.6926331160E+00
          0                 3           2             4    6     1      -0.2128292733E-02       4    6    1        -0.1145459524E+00      0.1560300014E+00
          0                 4           2             4    6     1      -0.5868857125E-03       4    6    1        -0.3150037868E-01      0.4263238901E-01
          0                 5           2             4    6     1      -0.1619282183E-03       4    6    1        -0.8690144290E-02      0.1190280103E-01
          0                 6           1             4    6     1      -0.4470242206E-04       4    6    1        -0.2398034806E-02      0.3325555838E-02

    ------------------------------------------------
       NWT REQUIRED            6 OUTER ITERATIONS 
       AND A TOTAL OF         11 INNER ITERATIONS.
    ------------------------------------------------

 NO OUTPUT CONTROL FOR STRESS PERIOD   12   TIME STEP   24
 
 SOLVING FOR HEAD 
                                                   Max.-Head-Change                         Max.-Flux-Residual
  Residual-Control   Outer-Iter.   Inner-Iter.     Column Row Layer    Maximum-Head-Change  Column Row Layer    Maximum-Flux-Residual          L2-NORM 
          0                 1           2             3    7     1       0.4232391952E-01       4    5    1         0.1501507445E+01      0.4603917259E+01
          0                 2           2             4    6     1      -0.7177679351E-02       4    6    1        -0.3824782612E+00      0.6592074203E+00
          0                 3           2             4    6     1      -0.1978998867E-02       4    6    1        -0.1064829593E+00      0.1464899877E+00
          0                 4           2             4    6     1      -0.5459528625E-03       4    6    1        -0.2929389542E-01      0.3997403255E-01
          0                 5           2             4    6     1      -0.1506971557E-03       4    6    1        -0.8084965780E-02      0.1116241245E-01
          0                 6           1             4    6     1      -0.4161865744E-04       4    6    1        -0.2231956117E-02      0.3119168044E-02

    ------------------------------------------------
       NWT REQUIRED            6 OUTER ITERATIONS 
       AND A TOTAL OF         11 INNER ITERATIONS.
    ------------------------------------------------

 NO OUTPUT CONTROL FOR STRESS PERIOD   12   TIME STEP   25
 
 SOLVING FOR HEAD 
                                                   Max.-Head-Change                         Max.-Flux-Residual
  Residual-Control   Outer-Iter.   Inner-Iter.     Column Row Layer    Maximum-Head-Change  Column Row Layer    Maximum-Flux-Residual          L2-NORM 
          0                 1           2             3    7     1       0.4145239414E-01       4    5    1         0.1431312629E+01      0.4461717737E+01
          0                 2           2             4    6     1      -0.6669554925E-02       4    6    1        -0.3551908695E+00      0.6279828894E+00
          0                 3           2             4    6     1      -0.1839685479E-02       4    6    1        -0.9896298420E-01      0.1375134375E+00
          0                 4           2             4    6     1      -0.5077290108E-03       4    6    1        -0.2723451723E-01      0.3746799777E-01
          0                 5           2             4    6     1      -0.1402020431E-03       4    6    1        -0.7519731285E-02      0.1046378988E-01
          0                 6           1             4    6     1      -0.3873500167E-04       4    6    1        -0.2076731475E-02      0.2924260121E-02

    ------------------------------------------------
       NWT REQUIRED            6 OUTER ITERATIONS 
       AND A TOTAL OF         11 INNER ITERATIONS.
    ------------------------------------------------

 NO OUTPUT CONTROL FOR STRESS PERIOD   12   TIME STEP   26
 
 SOLVING FOR HEAD 
                                                   Max.-Head-Change                         Max.-Flux-Residual
  Residual-Control   Outer-Iter.   Inner-Iter.     Column Row Layer    Maximum-Head-Change  Column Row Layer    Maximum-Flux-Residual          L2-NORM 
          0                 1           2             3    7     1       0.4060163601E-01       4    5    1         0.1365858358E+01      0.4328339472E+01
          0                 2           2             4    6     1      -0.6195284596E-02       4    6    1        -0.3297354165E+00      0.5988041480E+00
          0                 3           2             4    6     1      -0.1709561751E-02       4    6    1        -0.9194265533E-01      0.1290599552E+00
          0                 4           2             4    6     1      -0.4720018723E-03       4    6    1        -0.2531062277E-01      0.3510344266E-01
          0                 5           2             4    6     1      -0.1303858437E-03       4    6    1        -0.6991320062E-02      0.9804028822E-02
          0                 6           1             4    6     1      -0.3603611517E-04       4    6    1        -0.1931522154E-02      0.2740051885E-02

    ------------------------------------------------
       NWT REQUIRED            6 OUTER ITERATIONS 
       AND A TOTAL OF         11 INNER ITERATIONS.
    ------------------------------------------------

 NO OUTPUT CONTROL FOR STRESS PERIOD   12   TIME STEP   27
 
 SOLVING FOR HEAD 
                                                   Max.-Head-Change                         Max.-Flux-Residual
  Residual-Control   Outer-Iter.   Inner-Iter.     Column Row Layer    Maximum-Head-Change  Column Row Layer    Maximum-Flux-Residual          L2-NORM 
          0                 1           2             3    7     1       0.3977189941E-01       4    5    1         0.1304797257E+01      0.4203112310E+01
          0                 2           2             4    6     1      -0.5752385499E-02       4    6    1        -0.3059768282E+00      0.5715270894E+00
          0                 3           2             4    6     1      -0.1587958426E-02       4    6    1        -0.8538539967E-01      0.1210918758E+00
          0                 4           2             4    6     1      -0.4385908754E-03       4    6    1        -0.2351236377E-01      0.3286983388E-01
          0                 5           2             4    6     1      -0.1211997893E-03       4    6    1        -0.6497073839E-02      0.9180339902E-02
          0                 6           1             4    6     1      -0.3350881486E-04       4    6    1        -0.1795610058E-02      0.2565804465E-02

    ------------------------------------------------
       NWT REQUIRED            6 OUTER ITERATIONS 
       AND A TOTAL OF         11 INNER ITERATIONS.
    ------------------------------------------------

 NO OUTPUT CONTROL FOR STRESS PERIOD   12   TIME STEP   28
 
 SOLVING FOR HEAD 
                                                   Max.-Head-Change                         Max.-Flux-Residual
  Residual-Control   Outer-Iter.   Inner-Iter.     Column Row Layer    Maximum-Head-Change  Column Row Layer    Maximum-Flux-Residual          L2-NORM 
          0                 1           2             3    7     1       0.3896285552E-01       4    5    1         0.1247823034E+01      0.4085437067E+01
          0                 2           2             4    6     1      -0.5338467047E-02       4    6    1        -0.2837845245E+00      0.5460301143E+00
          0                 3           2             4    6     1      -0.1474234483E-02       4    6    1        -0.7925605510E-01      0.1135788368E+00
          0                 4           2             4    6     1      -0.4073239774E-03       4    6    1        -0.2183032068E-01      0.3075907928E-01
          0                 5           2             4    6     1      -0.1125976637E-03       4    6    1        -0.6034463569E-02      0.8590427547E-02
          0                 6           1             4    6     1      -0.3114067346E-04       4    6    1        -0.1668315622E-02      0.2400894806E-02

    ------------------------------------------------
       NWT REQUIRED            6 OUTER ITERATIONS 
       AND A TOTAL OF         11 INNER ITERATIONS.
    ------------------------------------------------

 NO OUTPUT CONTROL FOR STRESS PERIOD   12   TIME STEP   29
 
 SOLVING FOR HEAD 
                                                   Max.-Head-Change                         Max.-Flux-Residual
  Residual-Control   Outer-Iter.   Inner-Iter.     Column Row Layer    Maximum-Head-Change  Column Row Layer    Maximum-Flux-Residual          L2-NORM 
          0                 1           2             3    7     1       0.3817459079E-01       4    5    1         0.1194638838E+01      0.3974563056E+01
          0                 2           2             4    6     1      -0.4951340617E-02       4    6    1        -0.2630394128E+00      0.5221813316E+00
          0                 3           2             4    6     1      -0.1367800123E-02       4    6    1        -0.7352238519E-01      0.1064906422E+00
          0                 4           2             4    6     1      -0.3780420942E-03       4    6    1        -0.2025581501E-01      0.2876310835E-01
          0                 5           1             4    6     1      -0.1045365800E-03       4    6    1        -0.5601147572E-02      0.8032082555E-02
          0                 6           1             4    6     1      -0.2892004206E-04       4    6    1        -0.1549004069E-02      0.2244708179E-02

    ------------------------------------------------
       NWT REQUIRED            6 OUTER ITERATIONS 
       AND A TOTAL OF         10 INNER ITERATIONS.
    ------------------------------------------------

 NO OUTPUT CONTROL FOR STRESS PERIOD   12   TIME STEP   30



 STREAM LISTING     PERIOD     12   STEP       30

 LAYER ROW COL. STREAM  RCH.  FLOW INTO     FLOW TO   FLOW OUT OF   OVRLND.     DIRECT     STREAM       STREAM     STREAM     STREAM   STREAMBED  STREAMBED
                SEG.NO.  NO.  STRM. RCH.    AQUIFER    STRM. RCH.    RUNOFF     PRECIP       ET          HEAD       DEPTH      WIDTH   CONDCTNC.   GRADIENT

   1    1    1     1     1    1.9081E+01  2.1479E-01   1.8866E+01  0.000E+00  0.000E+00  0.000E+00  1.09413E+03  1.083E+00  1.169E+01  5.260E-02  1.361E+00
   1    2    2     1     2    1.8866E+01  3.3136E-01   1.8535E+01  0.000E+00  0.000E+00  0.000E+00  1.08914E+03  1.079E+00  1.161E+01  8.124E-02  1.360E+00
   1    3    3     1     3    1.8535E+01  2.8134E-01   1.8253E+01  0.000E+00  0.000E+00  0.000E+00  1.08349E+03  1.074E+00  1.151E+01  6.906E-02  1.358E+00
   1    3    4     1     4    1.8253E+01  2.5804E-01   1.7995E+01  0.000E+00  0.000E+00  0.000E+00  1.07848E+03  1.069E+00  1.143E+01  6.342E-02  1.356E+00
   1    4    5     2     1    1.5995E+01  3.0564E-01   1.5690E+01  0.000E+00  0.000E+00  0.000E+00  1.07285E+03  9.184E-01  1.200E+01  7.800E-02  1.306E+00
   1    5    6     2     2    1.5690E+01  2.3454E-01   1.5455E+01  0.000E+00  0.000E+00  0.000E+00  1.06742E+03  9.090E-01  1.200E+01  6.000E-02  1.303E+00
   1    6    6     2     3    1.5455E+01  2.3405E-01   1.5221E+01  0.000E+00  0.000E+00  0.000E+00  1.06269E+03  9.008E-01  1.200E+01  6.000E-02  1.300E+00
   1    7    6     2     4    1.5221E+01  2.3355E-01   1.4987E+01  0.000E+00  0.000E+00  0.000E+00  1.05797E+03  8.925E-01  1.200E+01  6.000E-02  1.297E+00
   1    8    6     2     5    1.4987E+01  2.3305E-01   1.4754E+01  0.000E+00  0.000E+00  0.000E+00  1.05324E+03  8.842E-01  1.200E+01  6.000E-02  1.295E+00
   1    3    5     3     1    2.0000E+00  2.8252E-01   1.7175E+00  0.000E+00  0.000E+00  0.000E+00  1.07555E+03  1.909E+00  9.636E+00  7.227E-02  1.955E+00
   1    3    6     3     2    1.7175E+00  2.4905E-01   1.4684E+00  0.000E+00  0.000E+00  0.000E+00  1.07264E+03  1.727E+00  8.909E+00  6.682E-02  1.864E+00
   1    3    7     3     3    1.4684E+00  1.9718E-01   1.2712E+00  0.000E+00  0.000E+00  0.000E+00  1.06987E+03  1.555E+00  8.218E+00  5.547E-02  1.777E+00
   1    4    8     3     4    1.2712E+00  2.2567E-01   1.0456E+00  0.000E+00  0.000E+00  0.000E+00  1.06682E+03  1.364E+00  7.455E+00  6.709E-02  1.682E+00
   1    5    8     3     5    1.0456E+00  1.5790E-01   8.8768E-01  0.000E+00  0.000E+00  0.000E+00  1.06362E+03  1.164E+00  6.655E+00  4.991E-02  1.582E+00
   1    6    8     3     6    8.8768E-01  5.5980E-02   8.3170E-01  0.000E+00  0.000E+00  0.000E+00  1.06158E+03  1.036E+00  6.145E+00  1.844E-02  1.518E+00
   1    5   10     4     1    1.0000E+01  9.0919E-02   9.9091E+00  0.000E+00  0.000E+00  0.000E+00  1.07836E+03  6.368E-01  1.000E+01  2.500E-02  1.212E+00
   1    5    9     4     2    9.9091E+00  1.8158E-01   9.7275E+00  0.000E+00  0.000E+00  0.000E+00  1.07154E+03  6.315E-01  1.000E+01  5.000E-02  1.211E+00
   1    6    8     4     3    9.7275E+00  1.2689E-01   9.6006E+00  0.000E+00  0.000E+00  0.000E+00  1.06381E+03  6.256E-01  1.000E+01  3.500E-02  1.209E+00
   1    6    8     5     1    1.0432E+01  2.2686E-01   1.0205E+01  0.000E+00  0.000E+00  0.000E+00  1.05868E+03  6.790E-01  1.542E+01  6.166E-02  1.226E+00
   1    7    7     5     2    1.0205E+01  2.7894E-01   9.9265E+00  0.000E+00  0.000E+00  0.000E+00  1.05417E+03  6.732E-01  1.519E+01  7.594E-02  1.224E+00
   1    8    7     5     3    9.9265E+00  1.9221E-01   9.7343E+00  0.000E+00  0.000E+00  0.000E+00  1.04992E+03  6.676E-01  1.497E+01  5.241E-02  1.223E+00
   1    8    6     5     4    9.7343E+00  1.3577E-01   9.5985E+00  0.000E+00  0.000E+00  0.000E+00  1.04691E+03  6.637E-01  1.482E+01  3.706E-02  1.221E+00
   1    9    6     6     1    2.4353E+01  2.5190E-01   2.4101E+01  0.000E+00  0.000E+00  0.000E+00  1.04393E+03  1.198E+00  1.200E+01  6.000E-02  1.399E+00
   1   10    7     6     2    2.4101E+01  2.5145E-01   2.3850E+01  0.000E+00  0.000E+00  0.000E+00  1.03937E+03  1.191E+00  1.200E+01  6.000E-02  1.397E+00
   1   11    7     6     3    2.3850E+01  2.5100E-01   2.3599E+01  0.000E+00  0.000E+00  0.000E+00  1.03482E+03  1.183E+00  1.200E+01  6.000E-02  1.394E+00
   1   12    7     6     4    2.3599E+01  2.5054E-01   2.3348E+01  0.000E+00  0.000E+00  0.000E+00  1.03027E+03  1.176E+00  1.200E+01  6.000E-02  1.392E+00
   1   13    7     6     5    2.3348E+01  1.5768E-03   2.3346E+01  0.000E+00  0.000E+00  0.000E+00  1.02708E+03  1.172E+00  1.200E+01  2.400E-02  2.190E-02
   1   14    9     7     1    1.5000E+02  1.3366E+00   1.4866E+02  0.000E+00  0.000E+00  0.000E+00  1.03987E+03  2.288E+00  5.529E+01  5.593E-01  7.966E-01
   1   13    8     7     2    1.4866E+02  1.8402E+00   1.4682E+02  0.000E+00  0.000E+00  0.000E+00  1.03478E+03  2.279E+00  5.526E+01  6.148E-01  9.977E-01
   1   13    7     7     3    1.4682E+02  1.4935E+00   1.4533E+02  0.000E+00  0.000E+00  0.000E+00  1.02969E+03  2.270E+00  5.522E+01  5.584E-01  8.915E-01
   1   13    6     8     1    1.6868E+02  9.5012E-01   1.6773E+02  0.000E+00  0.000E+00  0.000E+00  1.02482E+03  2.940E+00  4.264E+01  4.345E-01  7.289E-01
   1   13    5     8     2    1.6773E+02  2.1764E-01   1.6751E+02  0.000E+00  0.000E+00  0.000E+00  1.01856E+03  2.937E+00  4.258E+01  4.339E-01  1.672E-01
   1   13    4     8     3    1.6751E+02 -2.2694E+00   1.6978E+02  0.000E+00  0.000E+00  0.000E+00  1.01232E+03  2.943E+00  4.268E+01  4.349E+00 -1.739E-01
   1   13    3     8     4    1.6978E+02 -3.6018E+00   1.7338E+02  0.000E+00  0.000E+00  0.000E+00  1.00609E+03  2.962E+00  4.296E+01  4.377E+00 -2.743E-01
   1   13    2     8     5    1.7338E+02 -2.5924E+00   1.7597E+02  0.000E+00  0.000E+00  0.000E+00  9.99857E+02  2.982E+00  4.324E+01  4.407E+00 -1.961E-01
   1   13    1     8     6    1.7597E+02 -2.0001E+00   1.7797E+02  0.000E+00  0.000E+00  0.000E+00  9.94872E+02  2.997E+00  4.346E+01  2.657E+00 -2.509E-01
   1    8    6     9     1    0.0000E+00  0.0000E+00   0.0000E+00  0.000E+00  0.000E+00  0.000E+00  1.07875E+03  0.000E+00  4.000E+00  0.000E+00  1.000E+00
   1    8    5     9     2    0.0000E+00  0.0000E+00   0.0000E+00  0.000E+00  0.000E+00  0.000E+00  1.07825E+03  0.000E+00  4.000E+00  0.000E+00  1.000E+00





UNSATURATED ZONE PACKAGE VOLUMETRIC BUDGET FOR  TIME STEP    30 STRESS PERIOD   12
  ------------------------------------------------------------------------------



     CUMULATIVE VOLUMES      L**3       RATES FOR THIS TIME STEP      L**3/T
     ------------------                 ------------------------

           IN:                                      IN:
           ---                                      ---
        INFILTRATION =  2623336442.4036          INFILTRATION =           0.8475

          OUT:                                     OUT:
          ----                                     ----
              UZF ET =   430062341.6409                UZF ET =           0.7500
        UZF RECHARGE =  1755028202.5293          UZF RECHARGE =           4.9044

            IN - OUT =   438245898.2335              IN - OUT =          -4.8069

          STORAGE:                                 STORAGE:
          --------                                 --------
      STORAGE CHANGE =   438725958.8481        STORAGE CHANGE =          -4.8069

 PERCENT DISCREPANCY IS DIFFERENCE BETWEEN IN-OUT MINUS CHANGE IN STORAGE
 DIVIDED BY THE AVERAGE OF IN AND OUT TIMES 100

 PERCENT DISCREPANCY =          -0.00     PERCENT DISCREPANCY =          -0.00






1
  VOLUMETRIC BUDGET FOR AGRICULTURAL FIELDS AT  END OF TIME STEP   30, STRESS PERIOD  12
  ------------------------------------------------------------------------------

     CUMULATIVE VOLUMES      L**3       RATES FOR THIS TIME STEP      L**3/T
     ------------------                 ------------------------

           IN:                                      IN:
           ---                                      ---
               AG WELLS  =  2251250432.0000                 AG WELLS  =           0.0000
      DIVERSION SEGMENTS =   347499584.0000        DIVERSION SEGMENTS =           0.0000
       IRRIGATION PONDS  =           0.0000         IRRIGATION PONDS  =           0.0000
           GW IRRIGATION =           0.0000             GW IRRIGATION =           0.0000
           SW IRRIGATION =           0.0000             SW IRRIGATION =           0.0000
        SYSTEM LOSSES GW =           0.0000          SYSTEM LOSSES GW =           0.0000
        SYSTEM LOSSES SW =           0.0000          SYSTEM LOSSES SW =           0.0000

                TOTAL IN =  2598749952.0000                  TOTAL IN =           0.0000

          OUT:                                     OUT:
          ----                                     ----
               AG WELLS  =           0.0000                 AG WELLS  =           0.0000
      DIVERSION SEGMENTS =           0.0000        DIVERSION SEGMENTS =           0.0000
       IRRIGATION PONDS  =           0.0000         IRRIGATION PONDS  =           0.0000
           GW IRRIGATION =  2251250432.0000             GW IRRIGATION =           0.0000
           SW IRRIGATION =   347506400.0000             SW IRRIGATION =           0.0000
        SYSTEM LOSSES GW =           0.0000          SYSTEM LOSSES GW =           0.0000
        SYSTEM LOSSES SW =           0.0000          SYSTEM LOSSES SW =           0.0000

               TOTAL OUT =  2598756864.0000                 TOTAL OUT =           0.0000

                IN - OUT =       -6912.0000                  IN - OUT =           0.0000

     PERCENT DISCREPANCY =          -0.00         PERCENT DISCREPANCY =           0.00



1
  VOLUMETRIC BUDGET FOR ENTIRE MODEL AT END OF TIME STEP   30, STRESS PERIOD  12
  ------------------------------------------------------------------------------

     CUMULATIVE VOLUMES      L**3       RATES FOR THIS TIME STEP      L**3/T
     ------------------                 ------------------------

           IN:                                      IN:
           ---                                      ---
             STORAGE     =  2422974208.0000               STORAGE     =          10.4660
       CONSTANT HEAD     =           0.0000         CONSTANT HEAD     =           0.0000
     HEAD DEP BOUNDS     =     8291265.5000       HEAD DEP BOUNDS     =           0.2858
      STREAM LEAKAGE     =   350925216.0000        STREAM LEAKAGE     =          11.5723
        UZF RECHARGE     =  1755028224.0000          UZF RECHARGE     =           4.9044
               GW ET     =           0.0000                 GW ET     =           0.0000
     SURFACE LEAKAGE     =           0.0000       SURFACE LEAKAGE     =           0.0000
           AG WELLS      =           0.0000             AG WELLS      =           0.0000

                TOTAL IN =  4537219072.0000                  TOTAL IN =          27.2285

          OUT:                                     OUT:
          ----                                     ----
             STORAGE     =  1965644288.0000               STORAGE     =          16.4764
       CONSTANT HEAD     =           0.0000         CONSTANT HEAD     =           0.0000
     HEAD DEP BOUNDS     =     8441561.0000       HEAD DEP BOUNDS     =           0.2897
      STREAM LEAKAGE     =   310649824.0000        STREAM LEAKAGE     =          10.4636
        UZF RECHARGE     =           0.0000          UZF RECHARGE     =           0.0000
               GW ET     =     1207612.8750                 GW ET     =           0.0000
     SURFACE LEAKAGE     =           0.0000       SURFACE LEAKAGE     =           0.0000
           AG WELLS      =  2251250432.0000             AG WELLS      =           0.0000

               TOTAL OUT =  4537193472.0000                 TOTAL OUT =          27.2298

                IN - OUT =       25600.0000                  IN - OUT =      -1.2951E-03

     PERCENT DISCREPANCY =           0.00         PERCENT DISCREPANCY =          -0.00






         TIME SUMMARY AT END OF TIME STEP   30 IN STRESS PERIOD   12
                    SECONDS     MINUTES      HOURS       DAYS        YEARS
                    -----------------------------------------------------------
   TIME STEP LENGTH  87667.      1461.1      24.352      1.0147     2.77799E-03
 STRESS PERIOD TIME 2.63000E+06  43833.      730.56      30.440     8.33397E-02
         TOTAL TIME 2.90163E+07 4.83606E+05  8060.1      335.84     0.91947    
1
1
                            STRESS PERIOD NO.   13, LENGTH =   2630000.    
                            -----------------------------------------------

                              NUMBER OF TIME STEPS =    30

                               MULTIPLIER FOR DELT =     1.000

                            INITIAL TIME STEP SIZE =   87666.66    

 REUSING NON-PARAMETER GHB CELLS FROM LAST STRESS PERIOD

      2 GHB CELLS

 REUSING STREAM SEGMENT DATA FROM LAST STRESS PERIOD



            AREAL INFILTRATION RATE
 READING ON UNIT   19 WITH FORMAT: (FREE)              

            1           2           3           4           5           6           7           8           9          10
 ........................................................................................................................
   1   1.0000E-10  2.0000E-10   0.000       0.000       0.000       0.000       0.000       0.000       0.000       0.000    
   2   2.0000E-10  1.0000E-10  2.0000E-10   0.000       0.000      8.0000E-10  8.0000E-10  5.0000E-10   0.000       0.000    
   3    0.000      5.0000E-10  1.0000E-10  1.0000E-10  8.0000E-10  8.0000E-10  5.0000E-10  5.0000E-10   0.000       0.000    
   4   8.0000E-10  5.0000E-10  1.0000E-10  1.0000E-10  1.0000E-10  1.0000E-10  1.0000E-10  1.0000E-10  2.0000E-10   0.000    
   5   8.0000E-10  5.0000E-10  1.0000E-10  1.0000E-10  1.0000E-10  1.0000E-10  1.0000E-10  1.0000E-10  1.0000E-10  1.0000E-10
   6   8.0000E-10  5.0000E-10  5.0000E-10  2.0000E-10  2.0000E-10  1.0000E-10  1.0000E-10  1.0000E-10  1.0000E-10  5.0000E-10
   7   8.0000E-10  5.0000E-10  5.0000E-10  2.0000E-10  2.0000E-10  1.0000E-10  1.0000E-10  2.0000E-10  2.0000E-10   0.000    
   8    0.000      5.0000E-10  5.0000E-10  2.0000E-10  2.0000E-10  1.0000E-10  1.0000E-10  2.0000E-10  5.0000E-10   0.000    
   9    0.000      5.0000E-10  5.0000E-10  2.0000E-10  2.0000E-10  1.0000E-10  1.0000E-10  2.0000E-10  5.0000E-10   0.000    
  10    0.000      5.0000E-10  5.0000E-10  2.0000E-10  2.0000E-10  1.0000E-10  1.0000E-10  2.0000E-10  5.0000E-10  8.0000E-10
  11    0.000      1.0000E-10  1.0000E-10  1.0000E-10  1.0000E-10  1.0000E-10  1.0000E-10  2.0000E-10  5.0000E-10   0.000    
  12   1.0000E-10  1.0000E-10  1.0000E-10  1.0000E-10  1.0000E-10  1.0000E-10  1.0000E-10  1.0000E-10  2.0000E-10   0.000    
  13   1.0000E-10  1.0000E-10  2.0000E-10  2.0000E-10  2.0000E-10  2.0000E-10  2.0000E-10  1.0000E-10  1.0000E-10   0.000    
  14    0.000      2.0000E-10  5.0000E-10  5.0000E-10  5.0000E-10  5.0000E-10  5.0000E-10  2.0000E-10  1.0000E-10   0.000    
  15    0.000       0.000      8.0000E-10  8.0000E-10  8.0000E-10  8.0000E-10   0.000       0.000       0.000       0.000    

                  ET RATE =  5.000000E-10

 USING ET EXTINCTION DEPTH FROM PREVIOUS STRESS PERIOD. CURRENT PERIOD IS:      13

 USING EXTINCTION WATER CONTENT FROM PREVIOUS STRESS PERIOD. CURRENT PERIOD IS:      13

 USING AIR ENTRY PRESSURE FROM PREVIOUS STRESS PERIOD. CURRENT PERIOD IS:      13

 USING ROOT PRESSURE HEAD FROM PREVIOUS STRESS PERIOD. CURRENT PERIOD IS:      13

 USING ROOT ACTIVITY FROM PREVIOUS STRESS PERIOD. CURRENT PERIOD IS:      13

 PROCESSING AG STRESS PERIOD DATA

 READING AG STRESS PERIOD DATA

 READING IRRIGATION SEGMENT

 READING IRRIGATION WELL

 READING SUPPLEMENTAL WELL

 NO IRRPOND OR REUSING IRRPOND DATA FROM LAST STRESS PERIOD

 END PROCESSING AG STRESS PERIOD DATA OPTIONS
 
 SOLVING FOR HEAD 
                                                   Max.-Head-Change                         Max.-Flux-Residual
  Residual-Control   Outer-Iter.   Inner-Iter.     Column Row Layer    Maximum-Head-Change  Column Row Layer    Maximum-Flux-Residual          L2-NORM 
          0                 1           2             3    7     1       0.3740711967E-01       4    5    1         0.1144984432E+01      0.3870308854E+01
          0                 2           2             4    6     1      -0.4589019886E-02       4    6    1        -0.2436331595E+00      0.4998994718E+00
          0                 3           2             4    6     1      -0.1268121789E-02       4    6    1        -0.6815515829E-01      0.9980309350E-01
          0                 4           2             4    6     1      -0.3506017806E-03       4    6    1        -0.1878100275E-01      0.2687534905E-01
          0                 5           1             4    6     1      -0.9697781408E-04       4    6    1        -0.5195016202E-02      0.7503556302E-02

    ------------------------------------------------
       NWT REQUIRED            5 OUTER ITERATIONS 
       AND A TOTAL OF          9 INNER ITERATIONS.
    ------------------------------------------------

 NO OUTPUT CONTROL FOR STRESS PERIOD   13   TIME STEP    1
 
 SOLVING FOR HEAD 
                                                   Max.-Head-Change                         Max.-Flux-Residual
  Residual-Control   Outer-Iter.   Inner-Iter.     Column Row Layer    Maximum-Head-Change  Column Row Layer    Maximum-Flux-Residual          L2-NORM 
          0                 1           2             3    7     1       0.3666014391E-01       4    5    1         0.1098622735E+01      0.3772052816E+01
          0                 2           2             4    6     1      -0.4249857139E-02       4    6    1        -0.2254762041E+00      0.4790929692E+00
          0                 3           2             4    6     1      -0.1174754770E-02       4    6    1        -0.6313009528E-01      0.9349519967E-01
          0                 4           2             4    6     1      -0.3248828947E-03       4    6    1        -0.1739933757E-01      0.2508976555E-01
          0                 5           1             4    6     1      -0.8988894454E-04       4    6    1        -0.4814300247E-02      0.7003206642E-02

    ------------------------------------------------
       NWT REQUIRED            5 OUTER ITERATIONS 
       AND A TOTAL OF          9 INNER ITERATIONS.
    ------------------------------------------------

 NO OUTPUT CONTROL FOR STRESS PERIOD   13   TIME STEP    2
 
 SOLVING FOR HEAD 
                                                   Max.-Head-Change                         Max.-Flux-Residual
  Residual-Control   Outer-Iter.   Inner-Iter.     Column Row Layer    Maximum-Head-Change  Column Row Layer    Maximum-Flux-Residual          L2-NORM 
          0                 1           2             3    7     1       0.3593332453E-01       4    5    1         0.1055323974E+01      0.3679417879E+01
          0                 2           2             4    6     1      -0.3932039167E-02       4    6    1        -0.2084702876E+00      0.4596618453E+00
          0                 3           2             4    6     1      -0.1087207587E-02       4    6    1        -0.5842044841E-01      0.8754084354E-01
          0                 4           2             4    6     1      -0.3007520977E-03       4    6    1        -0.1610357624E-01      0.2339923737E-01
          0                 5           1             4    6     1      -0.8323376155E-04       4    6    1        -0.4457033797E-02      0.6529086835E-02

    ------------------------------------------------
       NWT REQUIRED            5 OUTER ITERATIONS 
       AND A TOTAL OF          9 INNER ITERATIONS.
    ------------------------------------------------

 NO OUTPUT CONTROL FOR STRESS PERIOD   13   TIME STEP    3
 
 SOLVING FOR HEAD 
                                                   Max.-Head-Change                         Max.-Flux-Residual
  Residual-Control   Outer-Iter.   Inner-Iter.     Column Row Layer    Maximum-Head-Change  Column Row Layer    Maximum-Flux-Residual          L2-NORM 
          0                 1           2             3    7     1       0.3522653127E-01       4    5    1         0.1014840555E+01      0.3592016486E+01
          0                 2           2             4    6     1      -0.3633972042E-02       4    6    1        -0.1925286403E+00      0.4415305152E+00
          0                 3           2             4    6     1      -0.1005051310E-02       4    6    1        -0.5400274573E-01      0.8192330147E-01
          0                 4           2             4    6     1      -0.2780938675E-03       4    6    1        -0.1488740995E-01      0.2179915318E-01
          0                 5           1             4    6     1      -0.7698112928E-04       4    6    1        -0.4121517136E-02      0.6079951371E-02

    ------------------------------------------------
       NWT REQUIRED            5 OUTER ITERATIONS 
       AND A TOTAL OF          9 INNER ITERATIONS.
    ------------------------------------------------

 NO OUTPUT CONTROL FOR STRESS PERIOD   13   TIME STEP    4
 
 SOLVING FOR HEAD 
                                                   Max.-Head-Change                         Max.-Flux-Residual
  Residual-Control   Outer-Iter.   Inner-Iter.     Column Row Layer    Maximum-Head-Change  Column Row Layer    Maximum-Flux-Residual          L2-NORM 
          0                 1           2             3    7     1       0.3453887099E-01       4    5    1         0.9770017234E+00      0.3509488628E+01
          0                 2           2             3    7     1      -0.3398339644E-02       4    6    1        -0.1775754214E+00      0.4246200238E+00
          0                 3           2             4    6     1      -0.9279067297E-03       4    6    1        -0.4985635125E-01      0.7662411218E-01
          0                 4           2             4    6     1      -0.2568053224E-03       4    6    1        -0.1374525008E-01      0.2028429789E-01
          0                 5           1             4    6     1      -0.7110310783E-04       4    6    1        -0.3806233455E-02      0.5654370525E-02

    ------------------------------------------------
       NWT REQUIRED            5 OUTER ITERATIONS 
       AND A TOTAL OF          9 INNER ITERATIONS.
    ------------------------------------------------

 NO OUTPUT CONTROL FOR STRESS PERIOD   13   TIME STEP    5
 
 SOLVING FOR HEAD 
                                                   Max.-Head-Change                         Max.-Flux-Residual
  Residual-Control   Outer-Iter.   Inner-Iter.     Column Row Layer    Maximum-Head-Change  Column Row Layer    Maximum-Flux-Residual          L2-NORM 
          0                 1           2             3    7     1       0.3387065423E-01       4    5    1         0.9416203828E+00      0.3431509566E+01
          0                 2           2             3    7     1      -0.3331384869E-02       4    6    1        -0.1635373261E+00      0.4088695924E+00
          0                 3           2             4    6     1      -0.8554088688E-03       4    6    1        -0.4596135567E-01      0.7162991353E-01
          0                 4           2             4    6     1      -0.2367877544E-03       4    6    1        -0.1267172219E-01      0.1885086560E-01
          0                 5           1             4    6     1      -0.6557298184E-04       4    6    1        -0.3509728699E-02      0.5251303673E-02

    ------------------------------------------------
       NWT REQUIRED            5 OUTER ITERATIONS 
       AND A TOTAL OF          9 INNER ITERATIONS.
    ------------------------------------------------

 NO OUTPUT CONTROL FOR STRESS PERIOD   13   TIME STEP    6
 
 SOLVING FOR HEAD 
                                                   Max.-Head-Change                         Max.-Flux-Residual
  Residual-Control   Outer-Iter.   Inner-Iter.     Column Row Layer    Maximum-Head-Change  Column Row Layer    Maximum-Flux-Residual          L2-NORM 
          0                 1           2             3    7     1       0.3322117837E-01       4    5    1         0.9085236322E+00      0.3357771403E+01
          0                 2           2             3    7     1      -0.3266281361E-02       4    6    1        -0.1503511577E+00      0.3942109173E+00
          0                 3           2             4    6     1      -0.7872417090E-03       4    6    1        -0.4230058037E-01      0.6687535312E-01
          0                 4           2             4    6     1      -0.2179549173E-03       4    6    1        -0.1166216689E-01      0.1747448189E-01
          0                 5           1             4    6     1      -0.6036704202E-04       4    6    1        -0.3230728879E-02      0.4862693662E-02

    ------------------------------------------------
       NWT REQUIRED            5 OUTER ITERATIONS 
       AND A TOTAL OF          9 INNER ITERATIONS.
    ------------------------------------------------

 NO OUTPUT CONTROL FOR STRESS PERIOD   13   TIME STEP    7
 
 SOLVING FOR HEAD 
                                                   Max.-Head-Change                         Max.-Flux-Residual
  Residual-Control   Outer-Iter.   Inner-Iter.     Column Row Layer    Maximum-Head-Change  Column Row Layer    Maximum-Flux-Residual          L2-NORM 
          0                 1           2             3    7     1       0.3258998796E-01       4    5    1         0.8775658614E+00      0.3291143324E+01
          0                 2           2             3    7     1      -0.3202978854E-02       4    6    1        -0.1379584422E+00      0.3833387786E+00
          0                 3           2             4    6     1      -0.7230979427E-03       4    6    1        -0.3885773961E-01      0.6375248265E-01
          0                 4           2             4    6     1      -0.2002192391E-03       4    6    1        -0.1071201124E-01      0.1659692163E-01
          0                 5           1             4    6     1      -0.5545976156E-04       4    6    1        -0.2967924370E-02      0.4614505706E-02

    ------------------------------------------------
       NWT REQUIRED            5 OUTER ITERATIONS 
       AND A TOTAL OF          9 INNER ITERATIONS.
    ------------------------------------------------

 NO OUTPUT CONTROL FOR STRESS PERIOD   13   TIME STEP    8
 
 SOLVING FOR HEAD 
                                                   Max.-Head-Change                         Max.-Flux-Residual
  Residual-Control   Outer-Iter.   Inner-Iter.     Column Row Layer    Maximum-Head-Change  Column Row Layer    Maximum-Flux-Residual          L2-NORM 
          0                 1           2             3    7     1       0.3197668831E-01       4    5    1         0.8485978266E+00      0.3287193157E+01
          0                 2           2             5    8     1       0.3488741484E-02       5    8    1         0.1962247257E+00      0.4146903798E+00
          0                 3           2             5    8     1       0.9920766933E-03       5    8    1         0.5493079531E-01      0.7914892512E-01
          0                 4           2             5    8     1       0.2822946546E-03       5    8    1         0.1567643564E-01      0.2136139540E-01
          0                 5           1             5    8     1       0.8037673810E-04       5    8    1         0.4459278679E-02      0.5996453079E-02

    ------------------------------------------------
       NWT REQUIRED            5 OUTER ITERATIONS 
       AND A TOTAL OF          9 INNER ITERATIONS.
    ------------------------------------------------

 NO OUTPUT CONTROL FOR STRESS PERIOD   13   TIME STEP    9
 
 SOLVING FOR HEAD 
                                                   Max.-Head-Change                         Max.-Flux-Residual
  Residual-Control   Outer-Iter.   Inner-Iter.     Column Row Layer    Maximum-Head-Change  Column Row Layer    Maximum-Flux-Residual          L2-NORM 
          0                 1           2             3    7     1       0.3138149163E-01       3    7    1         0.8309341088E+00      0.3221823520E+01
          0                 2           2             5    8     1       0.3268639885E-02       5    8    1         0.1838171602E+00      0.3983936889E+00
          0                 3           2             5    8     1       0.9306269480E-03       5    8    1         0.5147232446E-01      0.7371503751E-01
          0                 4           2             5    8     1       0.2651192212E-03       5    8    1         0.1471045431E-01      0.1981695337E-01
          0                 5           1             5    8     1       0.7557089117E-04       5    8    1         0.4189208553E-02      0.5566869289E-02

    ------------------------------------------------
       NWT REQUIRED            5 OUTER ITERATIONS 
       AND A TOTAL OF          9 INNER ITERATIONS.
    ------------------------------------------------

 NO OUTPUT CONTROL FOR STRESS PERIOD   13   TIME STEP   10
 
 SOLVING FOR HEAD 
                                                   Max.-Head-Change                         Max.-Flux-Residual
  Residual-Control   Outer-Iter.   Inner-Iter.     Column Row Layer    Maximum-Head-Change  Column Row Layer    Maximum-Flux-Residual          L2-NORM 
          0                 1           2             3    7     1       0.3080372588E-01       3    7    1         0.8155164168E+00      0.3160827669E+01
          0                 2           2             5    8     1       0.3074404565E-02       5    8    1         0.1728567980E+00      0.3837577986E+00
          0                 3           2             5    8     1       0.8764451732E-03       5    8    1         0.4842125146E-01      0.6880119857E-01
          0                 4           2             5    8     1       0.2499891910E-03       5    8    1         0.1385890808E-01      0.1841706928E-01
          0                 5           1             5    8     1       0.7134154532E-04       5    8    1         0.3951360256E-02      0.5177669200E-02

    ------------------------------------------------
       NWT REQUIRED            5 OUTER ITERATIONS 
       AND A TOTAL OF          9 INNER ITERATIONS.
    ------------------------------------------------

 NO OUTPUT CONTROL FOR STRESS PERIOD   13   TIME STEP   11
 
 SOLVING FOR HEAD 
                                                   Max.-Head-Change                         Max.-Flux-Residual
  Residual-Control   Outer-Iter.   Inner-Iter.     Column Row Layer    Maximum-Head-Change  Column Row Layer    Maximum-Flux-Residual          L2-NORM 
          0                 1           2             3    7     1       0.3024295854E-01       3    7    1         0.8005497006E+00      0.3103744642E+01
          0                 2           2             3    7     1      -0.2967128469E-02       5    8    1         0.1631756819E+00      0.3705814853E+00
          0                 3           2             5    8     1       0.8286857184E-03       5    8    1         0.4573019676E-01      0.6436890324E-01
          0                 4           2             5    8     1       0.2366662853E-03       5    8    1         0.1310847912E-01      0.1715200679E-01
          0                 5           1             5    8     1       0.6762144193E-04       5    8    1         0.3741978841E-02      0.4826363654E-02

    ------------------------------------------------
       NWT REQUIRED            5 OUTER ITERATIONS 
       AND A TOTAL OF          9 INNER ITERATIONS.
    ------------------------------------------------

 NO OUTPUT CONTROL FOR STRESS PERIOD   13   TIME STEP   12
 
 SOLVING FOR HEAD 
                                                   Max.-Head-Change                         Max.-Flux-Residual
  Residual-Control   Outer-Iter.   Inner-Iter.     Column Row Layer    Maximum-Head-Change  Column Row Layer    Maximum-Flux-Residual          L2-NORM 
          0                 1           2             3    7     1       0.2969897923E-01       3    7    1         0.7860289097E+00      0.3050207417E+01
          0                 2           2             3    7     1      -0.2912400253E-02       5    8    1         0.1546204067E+00      0.3588105040E+00
          0                 3           2             5    8     1       0.7865789511E-03       5    8    1         0.4335597905E-01      0.6038501256E-01
          0                 4           2             5    8     1       0.2249337766E-03       5    8    1         0.1244700392E-01      0.1601224931E-01
          0                 5           1             5    8     1       0.6434936558E-04       5    8    1         0.3557595577E-02      0.4509885738E-02

    ------------------------------------------------
       NWT REQUIRED            5 OUTER ITERATIONS 
       AND A TOTAL OF          9 INNER ITERATIONS.
    ------------------------------------------------

 NO OUTPUT CONTROL FOR STRESS PERIOD   13   TIME STEP   13
 
 SOLVING FOR HEAD 
                                                   Max.-Head-Change                         Max.-Flux-Residual
  Residual-Control   Outer-Iter.   Inner-Iter.     Column Row Layer    Maximum-Head-Change  Column Row Layer    Maximum-Flux-Residual          L2-NORM 
          0                 1           2             3    7     1       0.2917131267E-01       3    7    1         0.7719419520E+00      0.2999844889E+01
          0                 2           2             3    7     1      -0.2859298694E-02       5    8    1         0.1470563437E+00      0.3482100783E+00
          0                 3           2             5    8     1       0.7494454719E-03       5    8    1         0.4126057731E-01      0.5681774078E-01
          0                 4           2             5    8     1       0.2146008718E-03       5    8    1         0.1186392556E-01      0.1499059238E-01
          0                 5           1             5    8     1       0.6147188405E-04       5    8    1         0.3395375549E-02      0.4226698101E-02

    ------------------------------------------------
       NWT REQUIRED            5 OUTER ITERATIONS 
       AND A TOTAL OF          9 INNER ITERATIONS.
    ------------------------------------------------

 NO OUTPUT CONTROL FOR STRESS PERIOD   13   TIME STEP   14
 
 SOLVING FOR HEAD 
                                                   Max.-Head-Change                         Max.-Flux-Residual
  Residual-Control   Outer-Iter.   Inner-Iter.     Column Row Layer    Maximum-Head-Change  Column Row Layer    Maximum-Flux-Residual          L2-NORM 
          0                 1           2             3    7     1       0.2865947024E-01       6    8    1         0.7649124807E+00      0.2952353339E+01
          0                 2           2             3    7     1      -0.2807780593E-02       5    8    1         0.1403702516E+00      0.3386966641E+00
          0                 3           2             5    8     1       0.7167161861E-03       5    8    1         0.3941202557E-01      0.5364417644E-01
          0                 4           1             5    8     1       0.2055056871E-03       5    8    1         0.1134994685E-01      0.1408129457E-01
          0                 5           1             5    8     1       0.5894315460E-04       5    8    1         0.3252500551E-02      0.3975349366E-02

    ------------------------------------------------
       NWT REQUIRED            5 OUTER ITERATIONS 
       AND A TOTAL OF          8 INNER ITERATIONS.
    ------------------------------------------------

 NO OUTPUT CONTROL FOR STRESS PERIOD   13   TIME STEP   15
 
 SOLVING FOR HEAD 
                                                   Max.-Head-Change                         Max.-Flux-Residual
  Residual-Control   Outer-Iter.   Inner-Iter.     Column Row Layer    Maximum-Head-Change  Column Row Layer    Maximum-Flux-Residual          L2-NORM 
          0                 1           2             3    7     1       0.2816295925E-01       6    8    1         0.7575134522E+00      0.2907485892E+01
          0                 2           2             3    7     1      -0.2757799608E-02       5    8    1         0.1344560045E+00      0.3301647767E+00
          0                 3           2             5    8     1       0.6878564942E-03       5    8    1         0.3778055047E-01      0.5084096737E-01
          0                 4           1             5    8     1       0.1975002932E-03       5    8    1         0.1089726764E-01      0.1327815836E-01
          0                 5           1             5    8     1       0.5672071839E-04       5    8    1         0.3126976123E-02      0.3753345869E-02

    ------------------------------------------------
       NWT REQUIRED            5 OUTER ITERATIONS 
       AND A TOTAL OF          8 INNER ITERATIONS.
    ------------------------------------------------

 NO OUTPUT CONTROL FOR STRESS PERIOD   13   TIME STEP   16
 
 SOLVING FOR HEAD 
                                                   Max.-Head-Change                         Max.-Flux-Residual
  Residual-Control   Outer-Iter.   Inner-Iter.     Column Row Layer    Maximum-Head-Change  Column Row Layer    Maximum-Flux-Residual          L2-NORM 
          0                 1           2             3    7     1       0.2768152351E-01       6    8    1         0.7497896583E+00      0.2865026392E+01
          0                 2           2             3    7     1      -0.2709334496E-02       5    8    1         0.1292252124E+00      0.3225239729E+00
          0                 3           2             5    8     1       0.6624216265E-03       5    8    1         0.3634106596E-01      0.4838975227E-01
          0                 4           1             5    8     1       0.1904569443E-03       5    8    1         0.1049831241E-01      0.1257735188E-01
          0                 5           1             5    8     1       0.5476938930E-04       5    8    1         0.3016508074E-02      0.3560351804E-02

    ------------------------------------------------
       NWT REQUIRED            5 OUTER ITERATIONS 
       AND A TOTAL OF          8 INNER ITERATIONS.
    ------------------------------------------------

 NO OUTPUT CONTROL FOR STRESS PERIOD   13   TIME STEP   17
 
 SOLVING FOR HEAD 
                                                   Max.-Head-Change                         Max.-Flux-Residual
  Residual-Control   Outer-Iter.   Inner-Iter.     Column Row Layer    Maximum-Head-Change  Column Row Layer    Maximum-Flux-Residual          L2-NORM 
          0                 1           2             3    7     1       0.2721466519E-01       6    8    1         0.7418227955E+00      0.2824772238E+01
          0                 2           2             3    7     1      -0.2662336011E-02       5    8    1         0.1245934730E+00      0.3156864158E+00
          0                 3           2             5    8     1       0.6399853642E-03       5    8    1         0.3506978360E-01      0.4626933546E-01
          0                 4           1             5    8     1       0.1842561706E-03       5    8    1         0.1014655578E-01      0.1197352819E-01
          0                 5           1             5    8     1       0.5305511258E-04       5    8    1         0.2919306845E-02      0.3394593408E-02

    ------------------------------------------------
       NWT REQUIRED            5 OUTER ITERATIONS 
       AND A TOTAL OF          8 INNER ITERATIONS.
    ------------------------------------------------

 NO OUTPUT CONTROL FOR STRESS PERIOD   13   TIME STEP   18
 
 SOLVING FOR HEAD 
                                                   Max.-Head-Change                         Max.-Flux-Residual
  Residual-Control   Outer-Iter.   Inner-Iter.     Column Row Layer    Maximum-Head-Change  Column Row Layer    Maximum-Flux-Residual          L2-NORM 
          0                 1           2             3    7     1       0.2676278700E-01       6    8    1         0.7336749912E+00      0.2806601170E+01
          0                 2           2             3    7     1      -0.2616249092E-02       5    8    1         0.1220790893E+00      0.3267852432E+00
          0                 3           2             5    8     1       0.6436604020E-03       5    8    1         0.3487575512E-01      0.5418659875E-01
          0                 4           2             5    8     1       0.1881797881E-03       5    8    1         0.1024450921E-01      0.1477406204E-01
          0                 5           1             5    8     1       0.5503440559E-04       5    8    1         0.2993263698E-02      0.4292308841E-02

    ------------------------------------------------
       NWT REQUIRED            5 OUTER ITERATIONS 
       AND A TOTAL OF          9 INNER ITERATIONS.
    ------------------------------------------------

 NO OUTPUT CONTROL FOR STRESS PERIOD   13   TIME STEP   19
 
 SOLVING FOR HEAD 
                                                   Max.-Head-Change                         Max.-Flux-Residual
  Residual-Control   Outer-Iter.   Inner-Iter.     Column Row Layer    Maximum-Head-Change  Column Row Layer    Maximum-Flux-Residual          L2-NORM 
          0                 1           2             3    7     1       0.2632793731E-01       6    8    1         0.7255526163E+00      0.2819514954E+01
          0                 2           2             4    8     1       0.3435502564E-02       4    8    1         0.1871995265E+00      0.3570908017E+00
          0                 3           2             4    8     1       0.1012987152E-02       4    8    1         0.5466797588E-01      0.6985583975E-01
          0                 4           2             4    8     1       0.2989078241E-03       4    8    1         0.1615423201E-01      0.1978293248E-01
          0                 5           1             4    8     1       0.8826002822E-04       4    8    1         0.4766312290E-02      0.5808572444E-02

    ------------------------------------------------
       NWT REQUIRED            5 OUTER ITERATIONS 
       AND A TOTAL OF          9 INNER ITERATIONS.
    ------------------------------------------------

 NO OUTPUT CONTROL FOR STRESS PERIOD   13   TIME STEP   20
 
 SOLVING FOR HEAD 
                                                   Max.-Head-Change                         Max.-Flux-Residual
  Residual-Control   Outer-Iter.   Inner-Iter.     Column Row Layer    Maximum-Head-Change  Column Row Layer    Maximum-Flux-Residual          L2-NORM 
          0                 1           2             3    7     1       0.2591116855E-01       6    8    1         0.7176213862E+00      0.2836933036E+01
          0                 2           2             4    8     1       0.3306658061E-02       4    8    1         0.1799252107E+00      0.3862903540E+00
          0                 3           2             4    8     1       0.9775520420E-03       4    8    1         0.5264454962E-01      0.8294587513E-01
          0                 4           2             4    8     1       0.2893334059E-03       4    8    1         0.1560006410E-01      0.2386494456E-01
          0                 5           1             4    8     1       0.8572741705E-04       4    8    1         0.4617321455E-02      0.7040023838E-02

    ------------------------------------------------
       NWT REQUIRED            5 OUTER ITERATIONS 
       AND A TOTAL OF          9 INNER ITERATIONS.
    ------------------------------------------------

 NO OUTPUT CONTROL FOR STRESS PERIOD   13   TIME STEP   21
 
 SOLVING FOR HEAD 
                                                   Max.-Head-Change                         Max.-Flux-Residual
  Residual-Control   Outer-Iter.   Inner-Iter.     Column Row Layer    Maximum-Head-Change  Column Row Layer    Maximum-Flux-Residual          L2-NORM 
          0                 1           2             3    7     1       0.2551329322E-01       6    8    1         0.7102795191E+00      0.2814933017E+01
          0                 2           2             4    8     1       0.3192715457E-02       4    8    1         0.1735117727E+00      0.3860377236E+00
          0                 3           2             4    8     1       0.9457355646E-03       4    8    1         0.5085315999E-01      0.8355214542E-01
          0                 4           2             4    8     1       0.2804604497E-03       4    8    1         0.1509995228E-01      0.2408999146E-01
          0                 5           1             4    8     1       0.8325629230E-04       4    8    1         0.4477900667E-02      0.7113776615E-02

    ------------------------------------------------
       NWT REQUIRED            5 OUTER ITERATIONS 
       AND A TOTAL OF          9 INNER ITERATIONS.
    ------------------------------------------------

 NO OUTPUT CONTROL FOR STRESS PERIOD   13   TIME STEP   22
 
 SOLVING FOR HEAD 
                                                   Max.-Head-Change                         Max.-Flux-Residual
  Residual-Control   Outer-Iter.   Inner-Iter.     Column Row Layer    Maximum-Head-Change  Column Row Layer    Maximum-Flux-Residual          L2-NORM 
          0                 1           2             3    7     1       0.2513276938E-01       6    8    1         0.7034770352E+00      0.2781569650E+01
          0                 2           2             4    8     1       0.3091730472E-02       4    8    1         0.1678406634E+00      0.3780180560E+00
          0                 3           2             4    8     1       0.9173537662E-03       4    8    1         0.4926415589E-01      0.8115240857E-01
          0                 4           2             4    8     1       0.2724595577E-03       4    8    1         0.1465293357E-01      0.2343499060E-01
          0                 5           1             4    8     1       0.8099303972E-04       4    8    1         0.4351637215E-02      0.6934711074E-02

    ------------------------------------------------
       NWT REQUIRED            5 OUTER ITERATIONS 
       AND A TOTAL OF          9 INNER ITERATIONS.
    ------------------------------------------------

 NO OUTPUT CONTROL FOR STRESS PERIOD   13   TIME STEP   23
 
 SOLVING FOR HEAD 
                                                   Max.-Head-Change                         Max.-Flux-Residual
  Residual-Control   Outer-Iter.   Inner-Iter.     Column Row Layer    Maximum-Head-Change  Column Row Layer    Maximum-Flux-Residual          L2-NORM 
          0                 1           2             3    7     1       0.2476868203E-01       6    8    1         0.6971329505E+00      0.2750965653E+01
          0                 2           2             4    8     1       0.3002225821E-02       4    8    1         0.1628126975E+00      0.3711951341E+00
          0                 3           2             4    8     1       0.8922011036E-03       4    8    1         0.4785591960E-01      0.7915198108E-01
          0                 4           2             4    8     1       0.2653650060E-03       4    8    1         0.1425606320E-01      0.2288661605E-01
          0                 5           1             4    8     1       0.7898847837E-04       4    8    1         0.4239573420E-02      0.6784757073E-02

    ------------------------------------------------
       NWT REQUIRED            5 OUTER ITERATIONS 
       AND A TOTAL OF          9 INNER ITERATIONS.
    ------------------------------------------------

 NO OUTPUT CONTROL FOR STRESS PERIOD   13   TIME STEP   24
 
 SOLVING FOR HEAD 
                                                   Max.-Head-Change                         Max.-Flux-Residual
  Residual-Control   Outer-Iter.   Inner-Iter.     Column Row Layer    Maximum-Head-Change  Column Row Layer    Maximum-Flux-Residual          L2-NORM 
          0                 1           2             3    7     1       0.2448497748E-01       6    8    1         0.6911591697E+00      0.2745735930E+01
          0                 2           2             4    8     1       0.2988537186E-02       4    8    1         0.1604006903E+00      0.3837662340E+00
          0                 3           2             4    8     1       0.9001403992E-03       4    8    1         0.4780471894E-01      0.8595973679E-01
          0                 4           2             4    8     1       0.2711798654E-03       4    8    1         0.1443142056E-01      0.2533363007E-01
          0                 5           1             4    8     1       0.8171336403E-04       4    8    1         0.4346617213E-02      0.7615607258E-02

    ------------------------------------------------
       NWT REQUIRED            5 OUTER ITERATIONS 
       AND A TOTAL OF          9 INNER ITERATIONS.
    ------------------------------------------------

 NO OUTPUT CONTROL FOR STRESS PERIOD   13   TIME STEP   25
 
 SOLVING FOR HEAD 
                                                   Max.-Head-Change                         Max.-Flux-Residual
  Residual-Control   Outer-Iter.   Inner-Iter.     Column Row Layer    Maximum-Head-Change  Column Row Layer    Maximum-Flux-Residual          L2-NORM 
          0                 1           2             3    7     1       0.2427663071E-01       6    8    1         0.6855089632E+00      0.2797750488E+01
          0                 2           2             4    7     1       0.3100794855E-02       4    7    1         0.1651446503E+00      0.4286471858E+00
          0                 3           2             4    7     1       0.9381457465E-03       4    7    1         0.4970618296E-01      0.1035814731E+00
          0                 4           2             4    7     1       0.2840093691E-03       4    7    1         0.1505613951E-01      0.3076504015E-01
          0                 5           1             4    7     1       0.8602270077E-04       4    7    1         0.4558090954E-02      0.9257981338E-02

    ------------------------------------------------
       NWT REQUIRED            5 OUTER ITERATIONS 
       AND A TOTAL OF          9 INNER ITERATIONS.
    ------------------------------------------------

 NO OUTPUT CONTROL FOR STRESS PERIOD   13   TIME STEP   26
 
 SOLVING FOR HEAD 
                                                   Max.-Head-Change                         Max.-Flux-Residual
  Residual-Control   Outer-Iter.   Inner-Iter.     Column Row Layer    Maximum-Head-Change  Column Row Layer    Maximum-Flux-Residual          L2-NORM 
          0                 1           2             3    7     1       0.2408685399E-01       5    6    1         0.6879119415E+00      0.2817350816E+01
          0                 2           2             5    6     1       0.3759468662E-02       5    6    1         0.2070019348E+00      0.4472296611E+00
          0                 3           2             5    6     1       0.1095563919E-02       5    6    1         0.5961531747E-01      0.1103313009E+00
          0                 4           2             5    6     1       0.3196690292E-03       5    6    1         0.1741947983E-01      0.3273721040E-01
          0                 5           1             5    6     1       0.9338919207E-04       5    6    1         0.5082699990E-02      0.9825892656E-02

    ------------------------------------------------
       NWT REQUIRED            5 OUTER ITERATIONS 
       AND A TOTAL OF          9 INNER ITERATIONS.
    ------------------------------------------------

 NO OUTPUT CONTROL FOR STRESS PERIOD   13   TIME STEP   27
 
 SOLVING FOR HEAD 
                                                   Max.-Head-Change                         Max.-Flux-Residual
  Residual-Control   Outer-Iter.   Inner-Iter.     Column Row Layer    Maximum-Head-Change  Column Row Layer    Maximum-Flux-Residual          L2-NORM 
          0                 1           2             3    7     1       0.2389715959E-01       6    8    1         0.6750390371E+00      0.2795943554E+01
          0                 2           2             5    6     1       0.3567532849E-02       5    6    1         0.1965256215E+00      0.4413266662E+00
          0                 3           2             5    6     1       0.1039791378E-02       5    6    1         0.5656583674E-01      0.1085573050E+00
          0                 4           2             5    6     1       0.3034510618E-03       5    6    1         0.1653369577E-01      0.3223174283E-01
          0                 5           1             5    6     1       0.8866979877E-04       5    6    1         0.4825057462E-02      0.9681470668E-02

    ------------------------------------------------
       NWT REQUIRED            5 OUTER ITERATIONS 
       AND A TOTAL OF          9 INNER ITERATIONS.
    ------------------------------------------------

 NO OUTPUT CONTROL FOR STRESS PERIOD   13   TIME STEP   28
 
 SOLVING FOR HEAD 
                                                   Max.-Head-Change                         Max.-Flux-Residual
  Residual-Control   Outer-Iter.   Inner-Iter.     Column Row Layer    Maximum-Head-Change  Column Row Layer    Maximum-Flux-Residual          L2-NORM 
          0                 1           2             3    7     1       0.2370775371E-01       6    8    1         0.6701810793E+00      0.2776201731E+01
          0                 2           2             5    6     1       0.3416846541E-02       5    6    1         0.1880623591E+00      0.4365814040E+00
          0                 3           2             5    6     1       0.9976259666E-03       5    6    1         0.5419559450E-01      0.1072005853E+00
          0                 4           2             5    6     1       0.2916301018E-03       5    6    1         0.1587049599E-01      0.3185243300E-01
          0                 5           1             5    6     1       0.8534963845E-04       5    6    1         0.4639024215E-02      0.9574660269E-02

    ------------------------------------------------
       NWT REQUIRED            5 OUTER ITERATIONS 
       AND A TOTAL OF          9 INNER ITERATIONS.
    ------------------------------------------------

 NO OUTPUT CONTROL FOR STRESS PERIOD   13   TIME STEP   29
 
 SOLVING FOR HEAD 
                                                   Max.-Head-Change                         Max.-Flux-Residual
  Residual-Control   Outer-Iter.   Inner-Iter.     Column Row Layer    Maximum-Head-Change  Column Row Layer    Maximum-Flux-Residual          L2-NORM 
          0                 1           2             3    7     1       0.2351901004E-01       6    8    1         0.6655481750E+00      0.2757999560E+01
          0                 2           2             5    6     1       0.3277105412E-02       5    6    1         0.1802119952E+00      0.4323574842E+00
          0                 3           2             5    6     1       0.9585189785E-03       5    6    1         0.5199762772E-01      0.1060034056E+00
          0                 4           2             5    6     1       0.2806651471E-03       5    6    1         0.1525537527E-01      0.3151495334E-01
          0                 5           1             4    7     1       0.8237534944E-04       5    6    1         0.4466456599E-02      0.9478835227E-02

    ------------------------------------------------
       NWT REQUIRED            5 OUTER ITERATIONS 
       AND A TOTAL OF          9 INNER ITERATIONS.
    ------------------------------------------------

 NO OUTPUT CONTROL FOR STRESS PERIOD   13   TIME STEP   30



 STREAM LISTING     PERIOD     13   STEP       30

 LAYER ROW COL. STREAM  RCH.  FLOW INTO     FLOW TO   FLOW OUT OF   OVRLND.     DIRECT     STREAM       STREAM     STREAM     STREAM   STREAMBED  STREAMBED
                SEG.NO.  NO.  STRM. RCH.    AQUIFER    STRM. RCH.    RUNOFF     PRECIP       ET          HEAD       DEPTH      WIDTH   CONDCTNC.   GRADIENT

   1    1    1     1     1    1.7250E+01  2.0269E-01   1.7047E+01  0.000E+00  0.000E+00  0.000E+00  1.09410E+03  1.052E+00  1.112E+01  5.002E-02  1.351E+00
   1    2    2     1     2    1.7047E+01  3.1258E-01   1.6735E+01  0.000E+00  0.000E+00  0.000E+00  1.08911E+03  1.047E+00  1.103E+01  7.723E-02  1.349E+00
   1    3    3     1     3    1.6735E+01  2.6529E-01   1.6469E+01  0.000E+00  0.000E+00  0.000E+00  1.08346E+03  1.042E+00  1.094E+01  6.563E-02  1.347E+00
   1    3    4     1     4    1.6469E+01  2.4324E-01   1.6226E+01  0.000E+00  0.000E+00  0.000E+00  1.07845E+03  1.038E+00  1.085E+01  6.024E-02  1.346E+00
   1    4    5     2     1    1.4226E+01  3.0073E-01   1.3925E+01  0.000E+00  0.000E+00  0.000E+00  1.07279E+03  8.555E-01  1.200E+01  7.800E-02  1.285E+00
   1    5    6     2     2    1.3925E+01  2.3075E-01   1.3695E+01  0.000E+00  0.000E+00  0.000E+00  1.06736E+03  8.458E-01  1.200E+01  6.000E-02  1.282E+00
   1    6    6     2     3    1.3695E+01  2.3024E-01   1.3464E+01  0.000E+00  0.000E+00  0.000E+00  1.06263E+03  8.373E-01  1.200E+01  6.000E-02  1.279E+00
   1    7    6     2     4    1.3464E+01  2.2972E-01   1.3235E+01  0.000E+00  0.000E+00  0.000E+00  1.05790E+03  8.287E-01  1.200E+01  6.000E-02  1.276E+00
   1    8    6     2     5    1.3235E+01  2.2921E-01   1.3005E+01  0.000E+00  0.000E+00  0.000E+00  1.05318E+03  8.202E-01  1.200E+01  6.000E-02  1.273E+00
   1    3    5     3     1    2.0000E+00  2.8252E-01   1.7175E+00  0.000E+00  0.000E+00  0.000E+00  1.07555E+03  1.909E+00  9.636E+00  7.227E-02  1.955E+00
   1    3    6     3     2    1.7175E+00  2.4905E-01   1.4684E+00  0.000E+00  0.000E+00  0.000E+00  1.07264E+03  1.727E+00  8.909E+00  6.682E-02  1.864E+00
   1    3    7     3     3    1.4684E+00  1.9718E-01   1.2712E+00  0.000E+00  0.000E+00  0.000E+00  1.06987E+03  1.555E+00  8.218E+00  5.547E-02  1.777E+00
   1    4    8     3     4    1.2712E+00  2.2567E-01   1.0456E+00  0.000E+00  0.000E+00  0.000E+00  1.06682E+03  1.364E+00  7.455E+00  6.709E-02  1.682E+00
   1    5    8     3     5    1.0456E+00  1.5790E-01   8.8768E-01  0.000E+00  0.000E+00  0.000E+00  1.06362E+03  1.164E+00  6.655E+00  4.991E-02  1.582E+00
   1    6    8     3     6    8.8768E-01  5.5980E-02   8.3170E-01  0.000E+00  0.000E+00  0.000E+00  1.06158E+03  1.036E+00  6.145E+00  1.844E-02  1.518E+00
   1    5   10     4     1    1.0000E+01  9.0919E-02   9.9091E+00  0.000E+00  0.000E+00  0.000E+00  1.07836E+03  6.368E-01  1.000E+01  2.500E-02  1.212E+00
   1    5    9     4     2    9.9091E+00  1.8158E-01   9.7275E+00  0.000E+00  0.000E+00  0.000E+00  1.07154E+03  6.315E-01  1.000E+01  5.000E-02  1.211E+00
   1    6    8     4     3    9.7275E+00  1.2689E-01   9.6006E+00  0.000E+00  0.000E+00  0.000E+00  1.06381E+03  6.256E-01  1.000E+01  3.500E-02  1.209E+00
   1    6    8     5     1    1.0432E+01  2.2686E-01   1.0205E+01  0.000E+00  0.000E+00  0.000E+00  1.05868E+03  6.790E-01  1.542E+01  6.166E-02  1.226E+00
   1    7    7     5     2    1.0205E+01  2.7894E-01   9.9265E+00  0.000E+00  0.000E+00  0.000E+00  1.05417E+03  6.732E-01  1.519E+01  7.594E-02  1.224E+00
   1    8    7     5     3    9.9265E+00  1.9221E-01   9.7343E+00  0.000E+00  0.000E+00  0.000E+00  1.04992E+03  6.676E-01  1.497E+01  5.241E-02  1.223E+00
   1    8    6     5     4    9.7343E+00  1.3577E-01   9.5985E+00  0.000E+00  0.000E+00  0.000E+00  1.04691E+03  6.637E-01  1.482E+01  3.706E-02  1.221E+00
   1    9    6     6     1    2.2604E+01  2.4874E-01   2.2355E+01  0.000E+00  0.000E+00  0.000E+00  1.04387E+03  1.146E+00  1.200E+01  6.000E-02  1.382E+00
   1   10    7     6     2    2.2355E+01  2.4828E-01   2.2107E+01  0.000E+00  0.000E+00  0.000E+00  1.03932E+03  1.138E+00  1.200E+01  6.000E-02  1.379E+00
   1   11    7     6     3    2.2107E+01  2.4782E-01   2.1859E+01  0.000E+00  0.000E+00  0.000E+00  1.03477E+03  1.130E+00  1.200E+01  6.000E-02  1.377E+00
   1   12    7     6     4    2.1859E+01  2.4736E-01   2.1612E+01  0.000E+00  0.000E+00  0.000E+00  1.03021E+03  1.123E+00  1.200E+01  6.000E-02  1.374E+00
   1   13    7     6     5    2.1612E+01  1.2261E-03   2.1611E+01  0.000E+00  0.000E+00  0.000E+00  1.02703E+03  1.119E+00  1.200E+01  2.400E-02  1.703E-02
   1   14    9     7     1    1.5000E+02  1.3372E+00   1.4866E+02  0.000E+00  0.000E+00  0.000E+00  1.03987E+03  2.288E+00  5.529E+01  5.593E-01  7.970E-01
   1   13    8     7     2    1.4866E+02  1.8482E+00   1.4681E+02  0.000E+00  0.000E+00  0.000E+00  1.03478E+03  2.279E+00  5.526E+01  6.148E-01  1.002E+00
   1   13    7     7     3    1.4681E+02  1.5149E+00   1.4530E+02  0.000E+00  0.000E+00  0.000E+00  1.02969E+03  2.270E+00  5.522E+01  5.584E-01  9.043E-01
   1   13    6     8     1    1.6691E+02  9.6391E-01   1.6595E+02  0.000E+00  0.000E+00  0.000E+00  1.02480E+03  2.929E+00  4.247E+01  4.328E-01  7.425E-01
   1   13    5     8     2    1.6595E+02  2.3100E-01   1.6572E+02  0.000E+00  0.000E+00  0.000E+00  1.01855E+03  2.925E+00  4.241E+01  4.322E-01  1.782E-01
   1   13    4     8     3    1.6572E+02 -2.2205E+00   1.6794E+02  0.000E+00  0.000E+00  0.000E+00  1.01231E+03  2.931E+00  4.251E+01  4.331E+00 -1.709E-01
   1   13    3     8     4    1.6794E+02 -3.5636E+00   1.7150E+02  0.000E+00  0.000E+00  0.000E+00  1.00608E+03  2.950E+00  4.278E+01  4.359E+00 -2.725E-01
   1   13    2     8     5    1.7150E+02 -2.5727E+00   1.7407E+02  0.000E+00  0.000E+00  0.000E+00  9.99845E+02  2.970E+00  4.307E+01  4.389E+00 -1.954E-01
   1   13    1     8     6    1.7407E+02 -1.9890E+00   1.7606E+02  0.000E+00  0.000E+00  0.000E+00  9.94860E+02  2.985E+00  4.328E+01  2.646E+00 -2.505E-01
   1    8    6     9     1    0.0000E+00  0.0000E+00   0.0000E+00  0.000E+00  0.000E+00  0.000E+00  1.07875E+03  0.000E+00  4.000E+00  0.000E+00  1.000E+00
   1    8    5     9     2    0.0000E+00  0.0000E+00   0.0000E+00  0.000E+00  0.000E+00  0.000E+00  1.07825E+03  0.000E+00  4.000E+00  0.000E+00  1.000E+00





UNSATURATED ZONE PACKAGE VOLUMETRIC BUDGET FOR  TIME STEP    30 STRESS PERIOD   13
  ------------------------------------------------------------------------------



     CUMULATIVE VOLUMES      L**3       RATES FOR THIS TIME STEP      L**3/T
     ------------------                 ------------------------

           IN:                                      IN:
           ---                                      ---
        INFILTRATION =  2625565367.2764          INFILTRATION =           0.8475

          OUT:                                     OUT:
          ----                                     ----
              UZF ET =   432034841.5068                UZF ET =           0.7500
        UZF RECHARGE =  1774527180.6270          UZF RECHARGE =          10.5774

            IN - OUT =   419003345.1426              IN - OUT =         -10.4799

          STORAGE:                                 STORAGE:
          --------                                 --------
      STORAGE CHANGE =   419483405.7695        STORAGE CHANGE =         -10.4799

 PERCENT DISCREPANCY IS DIFFERENCE BETWEEN IN-OUT MINUS CHANGE IN STORAGE
 DIVIDED BY THE AVERAGE OF IN AND OUT TIMES 100

 PERCENT DISCREPANCY =          -0.00     PERCENT DISCREPANCY =           0.00






1
  VOLUMETRIC BUDGET FOR AGRICULTURAL FIELDS AT  END OF TIME STEP   30, STRESS PERIOD  13
  ------------------------------------------------------------------------------

     CUMULATIVE VOLUMES      L**3       RATES FOR THIS TIME STEP      L**3/T
     ------------------                 ------------------------

           IN:                                      IN:
           ---                                      ---
               AG WELLS  =  2251250432.0000                 AG WELLS  =           0.0000
      DIVERSION SEGMENTS =   347499584.0000        DIVERSION SEGMENTS =           0.0000
       IRRIGATION PONDS  =           0.0000         IRRIGATION PONDS  =           0.0000
           GW IRRIGATION =           0.0000             GW IRRIGATION =           0.0000
           SW IRRIGATION =           0.0000             SW IRRIGATION =           0.0000
        SYSTEM LOSSES GW =           0.0000          SYSTEM LOSSES GW =           0.0000
        SYSTEM LOSSES SW =           0.0000          SYSTEM LOSSES SW =           0.0000

                TOTAL IN =  2598749952.0000                  TOTAL IN =           0.0000

          OUT:                                     OUT:
          ----                                     ----
               AG WELLS  =           0.0000                 AG WELLS  =           0.0000
      DIVERSION SEGMENTS =           0.0000        DIVERSION SEGMENTS =           0.0000
       IRRIGATION PONDS  =           0.0000         IRRIGATION PONDS  =           0.0000
           GW IRRIGATION =  2251250432.0000             GW IRRIGATION =           0.0000
           SW IRRIGATION =   347506400.0000             SW IRRIGATION =           0.0000
        SYSTEM LOSSES GW =           0.0000          SYSTEM LOSSES GW =           0.0000
        SYSTEM LOSSES SW =           0.0000          SYSTEM LOSSES SW =           0.0000

               TOTAL OUT =  2598756864.0000                 TOTAL OUT =           0.0000

                IN - OUT =       -6912.0000                  IN - OUT =           0.0000

     PERCENT DISCREPANCY =          -0.00         PERCENT DISCREPANCY =           0.00



1
  VOLUMETRIC BUDGET FOR ENTIRE MODEL AT END OF TIME STEP   30, STRESS PERIOD  13
  ------------------------------------------------------------------------------

     CUMULATIVE VOLUMES      L**3       RATES FOR THIS TIME STEP      L**3/T
     ------------------                 ------------------------

           IN:                                      IN:
           ---                                      ---
             STORAGE     =  2440511232.0000               STORAGE     =           4.5183
       CONSTANT HEAD     =           0.0000         CONSTANT HEAD     =           0.0000
     HEAD DEP BOUNDS     =     9043007.0000       HEAD DEP BOUNDS     =           0.2859
      STREAM LEAKAGE     =   381171712.0000        STREAM LEAKAGE     =          11.5346
        UZF RECHARGE     =  1774527104.0000          UZF RECHARGE     =          10.5774
               GW ET     =           0.0000                 GW ET     =           0.0000
     SURFACE LEAKAGE     =           0.0000       SURFACE LEAKAGE     =           0.0000
           AG WELLS      =           0.0000             AG WELLS      =           0.0000

                TOTAL IN =  4605253120.0000                  TOTAL IN =          26.9161

          OUT:                                     OUT:
          ----                                     ----
             STORAGE     =  2005469184.0000               STORAGE     =          16.2743
       CONSTANT HEAD     =           0.0000         CONSTANT HEAD     =           0.0000
     HEAD DEP BOUNDS     =     9202764.0000       HEAD DEP BOUNDS     =           0.2892
      STREAM LEAKAGE     =   338096064.0000        STREAM LEAKAGE     =          10.3458
        UZF RECHARGE     =           0.0000          UZF RECHARGE     =           0.0000
               GW ET     =     1207612.8750                 GW ET     =           0.0000
     SURFACE LEAKAGE     =           0.0000       SURFACE LEAKAGE     =           0.0000
           AG WELLS      =  2251250432.0000             AG WELLS      =           0.0000

               TOTAL OUT =  4605225984.0000                 TOTAL OUT =          26.9094

                IN - OUT =       27136.0000                  IN - OUT =       6.7348E-03

     PERCENT DISCREPANCY =           0.00         PERCENT DISCREPANCY =           0.03






         TIME SUMMARY AT END OF TIME STEP   30 IN STRESS PERIOD   13
                    SECONDS     MINUTES      HOURS       DAYS        YEARS
                    -----------------------------------------------------------
   TIME STEP LENGTH  87667.      1461.1      24.352      1.0147     2.77799E-03
 STRESS PERIOD TIME 2.63000E+06  43833.      730.56      30.440     8.33397E-02
         TOTAL TIME 3.16463E+07 5.27439E+05  8790.6      366.28      1.0028    
1
1
                            STRESS PERIOD NO.   14, LENGTH =   2630000.    
                            -----------------------------------------------

                              NUMBER OF TIME STEPS =    30

                               MULTIPLIER FOR DELT =     1.000

                            INITIAL TIME STEP SIZE =   87666.66    

 REUSING NON-PARAMETER GHB CELLS FROM LAST STRESS PERIOD

      2 GHB CELLS

 REUSING STREAM SEGMENT DATA FROM LAST STRESS PERIOD



            AREAL INFILTRATION RATE
 READING ON UNIT   19 WITH FORMAT: (FREE)              

            1           2           3           4           5           6           7           8           9          10
 ........................................................................................................................
   1   1.0000E-10  2.0000E-10   0.000       0.000       0.000       0.000       0.000       0.000       0.000       0.000    
   2   2.0000E-10  1.0000E-10  2.0000E-10   0.000       0.000      8.0000E-10  8.0000E-10  5.0000E-10   0.000       0.000    
   3    0.000      5.0000E-10  1.0000E-10  1.0000E-10  8.0000E-10  8.0000E-10  5.0000E-10  5.0000E-10   0.000       0.000    
   4   8.0000E-10  5.0000E-10  1.0000E-10  1.0000E-10  1.0000E-10  1.0000E-10  1.0000E-10  1.0000E-10  2.0000E-10   0.000    
   5   8.0000E-10  5.0000E-10  1.0000E-10  1.0000E-10  1.0000E-10  1.0000E-10  1.0000E-10  1.0000E-10  1.0000E-10  1.0000E-10
   6   8.0000E-10  5.0000E-10  5.0000E-10  2.0000E-10  2.0000E-10  1.0000E-10  1.0000E-10  1.0000E-10  1.0000E-10  5.0000E-10
   7   8.0000E-10  5.0000E-10  5.0000E-10  2.0000E-10  2.0000E-10  1.0000E-10  1.0000E-10  2.0000E-10  2.0000E-10   0.000    
   8    0.000      5.0000E-10  5.0000E-10  2.0000E-10  2.0000E-10  1.0000E-10  1.0000E-10  2.0000E-10  5.0000E-10   0.000    
   9    0.000      5.0000E-10  5.0000E-10  2.0000E-10  2.0000E-10  1.0000E-10  1.0000E-10  2.0000E-10  5.0000E-10   0.000    
  10    0.000      5.0000E-10  5.0000E-10  2.0000E-10  2.0000E-10  1.0000E-10  1.0000E-10  2.0000E-10  5.0000E-10  8.0000E-10
  11    0.000      1.0000E-10  1.0000E-10  1.0000E-10  1.0000E-10  1.0000E-10  1.0000E-10  2.0000E-10  5.0000E-10   0.000    
  12   1.0000E-10  1.0000E-10  1.0000E-10  1.0000E-10  1.0000E-10  1.0000E-10  1.0000E-10  1.0000E-10  2.0000E-10   0.000    
  13   1.0000E-10  1.0000E-10  2.0000E-10  2.0000E-10  2.0000E-10  2.0000E-10  2.0000E-10  1.0000E-10  1.0000E-10   0.000    
  14    0.000      2.0000E-10  5.0000E-10  5.0000E-10  5.0000E-10  5.0000E-10  5.0000E-10  2.0000E-10  1.0000E-10   0.000    
  15    0.000       0.000      8.0000E-10  8.0000E-10  8.0000E-10  8.0000E-10   0.000       0.000       0.000       0.000    

                  ET RATE =  5.000000E-10

 USING ET EXTINCTION DEPTH FROM PREVIOUS STRESS PERIOD. CURRENT PERIOD IS:      14

 USING EXTINCTION WATER CONTENT FROM PREVIOUS STRESS PERIOD. CURRENT PERIOD IS:      14

 USING AIR ENTRY PRESSURE FROM PREVIOUS STRESS PERIOD. CURRENT PERIOD IS:      14

 USING ROOT PRESSURE HEAD FROM PREVIOUS STRESS PERIOD. CURRENT PERIOD IS:      14

 USING ROOT ACTIVITY FROM PREVIOUS STRESS PERIOD. CURRENT PERIOD IS:      14

 PROCESSING AG STRESS PERIOD DATA

 READING AG STRESS PERIOD DATA

 READING IRRIGATION SEGMENT

 READING IRRIGATION WELL

 READING SUPPLEMENTAL WELL

 NO IRRPOND OR REUSING IRRPOND DATA FROM LAST STRESS PERIOD

 END PROCESSING AG STRESS PERIOD DATA OPTIONS
 
 SOLVING FOR HEAD 
                                                   Max.-Head-Change                         Max.-Flux-Residual
  Residual-Control   Outer-Iter.   Inner-Iter.     Column Row Layer    Maximum-Head-Change  Column Row Layer    Maximum-Flux-Residual          L2-NORM 
          0                 1           2             3    7     1       0.2333124912E-01       6    8    1         0.6585778830E+00      0.2740541262E+01
          0                 2           2             5    6     1       0.3153936924E-02       5    6    1         0.1732879714E+00      0.4286400280E+00
          0                 3           2             5    6     1       0.9240412827E-03       5    6    1         0.5006062227E-01      0.1049769598E+00
          0                 4           2             5    6     1       0.2709954120E-03       5    6    1         0.1471301588E-01      0.3122283068E-01
          0                 5           1             4    7     1       0.8172414382E-04       5    6    1         0.4314262178E-02      0.9395044985E-02

    ------------------------------------------------
       NWT REQUIRED            5 OUTER ITERATIONS 
       AND A TOTAL OF          9 INNER ITERATIONS.
    ------------------------------------------------

 NO OUTPUT CONTROL FOR STRESS PERIOD   14   TIME STEP    1
 
 SOLVING FOR HEAD 
                                                   Max.-Head-Change                         Max.-Flux-Residual
  Residual-Control   Outer-Iter.   Inner-Iter.     Column Row Layer    Maximum-Head-Change  Column Row Layer    Maximum-Flux-Residual          L2-NORM 
          0                 1           2             3    7     1       0.2314473830E-01       4    9    1         0.6530278306E+00      0.2725179831E+01
          0                 2           2             5    6     1       0.3045209514E-02       5    6    1         0.1671723076E+00      0.4253695613E+00
          0                 3           2             5    6     1       0.8935963934E-03       5    6    1         0.4835092702E-01      0.1040884823E+00
          0                 4           2             4    8     1       0.2667068834E-03       5    6    1         0.1423404099E-01      0.3096736199E-01
          0                 5           1             4    7     1       0.8116072842E-04       4    8    1         0.4281219829E-02      0.9321022757E-02

    ------------------------------------------------
       NWT REQUIRED            5 OUTER ITERATIONS 
       AND A TOTAL OF          9 INNER ITERATIONS.
    ------------------------------------------------

 NO OUTPUT CONTROL FOR STRESS PERIOD   14   TIME STEP    2
 
 SOLVING FOR HEAD 
                                                   Max.-Head-Change                         Max.-Flux-Residual
  Residual-Control   Outer-Iter.   Inner-Iter.     Column Row Layer    Maximum-Head-Change  Column Row Layer    Maximum-Flux-Residual          L2-NORM 
          0                 1           2             3    7     1       0.2295993915E-01       4    9    1         0.6509220116E+00      0.2709947478E+01
          0                 2           2             5    6     1       0.2949327252E-02       5    6    1         0.1617845435E+00      0.4225453306E+00
          0                 3           2             4    8     1       0.8760141197E-03       5    6    1         0.4684281642E-01      0.1033179531E+00
          0                 4           2             4    8     1       0.2655082085E-03       4    8    1         0.1406633644E-01      0.3074341736E-01
          0                 5           1             4    7     1       0.8066857192E-04       4    8    1         0.4262030503E-02      0.9255494624E-02

    ------------------------------------------------
       NWT REQUIRED            5 OUTER ITERATIONS 
       AND A TOTAL OF          9 INNER ITERATIONS.
    ------------------------------------------------

 NO OUTPUT CONTROL FOR STRESS PERIOD   14   TIME STEP    3
 
 SOLVING FOR HEAD 
                                                   Max.-Head-Change                         Max.-Flux-Residual
  Residual-Control   Outer-Iter.   Inner-Iter.     Column Row Layer    Maximum-Head-Change  Column Row Layer    Maximum-Flux-Residual          L2-NORM 
          0                 1           2             3    7     1       0.2277707338E-01       4    9    1         0.6487647580E+00      0.2712553492E+01
          0                 2           2             5    6     1       0.2896649248E-02       5    6    1         0.1579888656E+00      0.4319921187E+00
          0                 3           2             4    7     1       0.8749624182E-03       4    8    1         0.4610931579E-01      0.1075531391E+00
          0                 4           2             4    7     1       0.2687993980E-03       4    7    1         0.1409609143E-01      0.3221249497E-01
          0                 5           1             4    7     1       0.8253425799E-04       4    7    1         0.4329355912E-02      0.9749224677E-02

    ------------------------------------------------
       NWT REQUIRED            5 OUTER ITERATIONS 
       AND A TOTAL OF          9 INNER ITERATIONS.
    ------------------------------------------------

 NO OUTPUT CONTROL FOR STRESS PERIOD   14   TIME STEP    4
 
 SOLVING FOR HEAD 
                                                   Max.-Head-Change                         Max.-Flux-Residual
  Residual-Control   Outer-Iter.   Inner-Iter.     Column Row Layer    Maximum-Head-Change  Column Row Layer    Maximum-Flux-Residual          L2-NORM 
          0                 1           2             3    7     1       0.2259902687E-01       4    6    1         0.7764700426E+00      0.2783519638E+01
          0                 2           2             4    6     1       0.4400859503E-02       4    6    1         0.2368291777E+00      0.4771544212E+00
          0                 3           2             4    6     1       0.1315674466E-02       4    6    1         0.7031110813E-01      0.1237629351E+00
          0                 4           2             4    6     1       0.3935620501E-03       4    6    1         0.2105234168E-01      0.3714327015E-01
          0                 5           2             4    6     1       0.1177939197E-03       4    6    1         0.6297186643E-02      0.1123328391E-01
          0                 6           1             4    6     1       0.3527519134E-04       4    6    1         0.1885049433E-02      0.3399766151E-02

    ------------------------------------------------
       NWT REQUIRED            6 OUTER ITERATIONS 
       AND A TOTAL OF         11 INNER ITERATIONS.
    ------------------------------------------------

 NO OUTPUT CONTROL FOR STRESS PERIOD   14   TIME STEP    5
 
 SOLVING FOR HEAD 
                                                   Max.-Head-Change                         Max.-Flux-Residual
  Residual-Control   Outer-Iter.   Inner-Iter.     Column Row Layer    Maximum-Head-Change  Column Row Layer    Maximum-Flux-Residual          L2-NORM 
          0                 1           2             3    7     1       0.2242768630E-01       4    6    1         0.7522037538E+00      0.2769684163E+01
          0                 2           2             4    6     1       0.4273129672E-02       4    6    1         0.2298495079E+00      0.4734276778E+00
          0                 3           2             4    6     1       0.1278612324E-02       4    6    1         0.6828248357E-01      0.1226446285E+00
          0                 4           2             4    6     1       0.3827990774E-03       4    6    1         0.2046390326E-01      0.3681526900E-01
          0                 5           2             4    6     1       0.1146657281E-03       4    6    1         0.6126253457E-02      0.1113703596E-01
          0                 6           1             4    6     1       0.3436525660E-04       4    6    1         0.1835359050E-02      0.3371462775E-02

    ------------------------------------------------
       NWT REQUIRED            6 OUTER ITERATIONS 
       AND A TOTAL OF         11 INNER ITERATIONS.
    ------------------------------------------------

 NO OUTPUT CONTROL FOR STRESS PERIOD   14   TIME STEP    6
 
 SOLVING FOR HEAD 
                                                   Max.-Head-Change                         Max.-Flux-Residual
  Residual-Control   Outer-Iter.   Inner-Iter.     Column Row Layer    Maximum-Head-Change  Column Row Layer    Maximum-Flux-Residual          L2-NORM 
          0                 1           2             3    7     1       0.2226123266E-01       4    6    1         0.7299999247E+00      0.2756449565E+01
          0                 2           2             4    6     1       0.4156034481E-02       4    6    1         0.2234548813E+00      0.4699542226E+00
          0                 3           2             4    6     1       0.1244604100E-02       4    6    1         0.6642235050E-01      0.1216068962E+00
          0                 4           2             4    6     1       0.3729137906E-03       4    6    1         0.1992382112E-01      0.3651003692E-01
          0                 5           2             4    6     1       0.1117899798E-03       4    6    1         0.5969222076E-02      0.1104720587E-01
          0                 6           1             4    6     1       0.3352798838E-04       4    6    1         0.1789667920E-02      0.3344971514E-02

    ------------------------------------------------
       NWT REQUIRED            6 OUTER ITERATIONS 
       AND A TOTAL OF         11 INNER ITERATIONS.
    ------------------------------------------------

 NO OUTPUT CONTROL FOR STRESS PERIOD   14   TIME STEP    7
 
 SOLVING FOR HEAD 
                                                   Max.-Head-Change                         Max.-Flux-Residual
  Residual-Control   Outer-Iter.   Inner-Iter.     Column Row Layer    Maximum-Head-Change  Column Row Layer    Maximum-Flux-Residual          L2-NORM 
          0                 1           2             3    7     1       0.2209922549E-01       4    6    1         0.7096511829E+00      0.2743725930E+01
          0                 2           2             4    6     1       0.4048507057E-02       4    6    1         0.2175866234E+00      0.4666933189E+00
          0                 3           2             4    6     1       0.1213343489E-02       4    6    1         0.6471380506E-01      0.1206367711E+00
          0                 4           2             4    6     1       0.3638181656E-03       4    6    1         0.1942724561E-01      0.3622392723E-01
          0                 5           1             4    6     1       0.1091415010E-03       4    6    1         0.5824698347E-02      0.1096277063E-01
          0                 6           1             4    6     1       0.3275599388E-04       4    6    1         0.1747569201E-02      0.3320006271E-02

    ------------------------------------------------
       NWT REQUIRED            6 OUTER ITERATIONS 
       AND A TOTAL OF         10 INNER ITERATIONS.
    ------------------------------------------------

 NO OUTPUT CONTROL FOR STRESS PERIOD   14   TIME STEP    8
 
 SOLVING FOR HEAD 
                                                   Max.-Head-Change                         Max.-Flux-Residual
  Residual-Control   Outer-Iter.   Inner-Iter.     Column Row Layer    Maximum-Head-Change  Column Row Layer    Maximum-Flux-Residual          L2-NORM 
          0                 1           2             3    7     1       0.2194151412E-01       4    6    1         0.6909565644E+00      0.2731426440E+01
          0                 2           2             4    6     1       0.3949522535E-02       4    6    1         0.2121879155E+00      0.4636143660E+00
          0                 3           2             4    6     1       0.1184538711E-02       4    6    1         0.6314065113E-01      0.1197250338E+00
          0                 4           2             4    6     1       0.3554290668E-03       4    6    1         0.1896956664E-01      0.3595438434E-01
          0                 5           1             4    6     1       0.1066962951E-03       4    6    1         0.5691368363E-02      0.1088302140E-01
          0                 6           1             4    6     1       0.3204271445E-04       4    6    1         0.1708699648E-02      0.3296368885E-02

    ------------------------------------------------
       NWT REQUIRED            6 OUTER ITERATIONS 
       AND A TOTAL OF         10 INNER ITERATIONS.
    ------------------------------------------------

 NO OUTPUT CONTROL FOR STRESS PERIOD   14   TIME STEP    9
 
 SOLVING FOR HEAD 
                                                   Max.-Head-Change                         Max.-Flux-Residual
  Residual-Control   Outer-Iter.   Inner-Iter.     Column Row Layer    Maximum-Head-Change  Column Row Layer    Maximum-Flux-Residual          L2-NORM 
          0                 1           2             3    7     1       0.2178774621E-01       4    6    1         0.6737659969E+00      0.2719512114E+01
          0                 2           2             4    6     1       0.3858318015E-02       4    6    1         0.2072166985E+00      0.4606947333E+00
          0                 3           2             4    6     1       0.1157971823E-02       4    6    1         0.6169081279E-01      0.1188642733E+00
          0                 4           2             4    6     1       0.3476841767E-03       4    6    1         0.1854733813E-01      0.3569935495E-01
          0                 5           1             4    6     1       0.1044366731E-03       4    6    1         0.5568246376E-02      0.1080739058E-01
          0                 6           1             4    6     1       0.3138293752E-04       4    6    1         0.1672771321E-02      0.3273902953E-02

    ------------------------------------------------
       NWT REQUIRED            6 OUTER ITERATIONS 
       AND A TOTAL OF         10 INNER ITERATIONS.
    ------------------------------------------------

 NO OUTPUT CONTROL FOR STRESS PERIOD   14   TIME STEP   10
 
 SOLVING FOR HEAD 
                                                   Max.-Head-Change                         Max.-Flux-Residual
  Residual-Control   Outer-Iter.   Inner-Iter.     Column Row Layer    Maximum-Head-Change  Column Row Layer    Maximum-Flux-Residual          L2-NORM 
          0                 1           2             3    7     1       0.2163735826E-01       4    6    1         0.6579311627E+00      0.2707916727E+01
          0                 2           2             4    6     1       0.3774132110E-02       4    6    1         0.2026308429E+00      0.4579124183E+00
          0                 3           2             4    6     1       0.1133425376E-02       4    6    1         0.6035224909E-01      0.1180478155E+00
          0                 4           2             4    6     1       0.3405213468E-03       4    6    1         0.1815712163E-01      0.3545696075E-01
          0                 5           1             4    6     1       0.1023448582E-03       4    6    1         0.5454349390E-02      0.1073535127E-01
          0                 6           1             4    6     1       0.3077157534E-04       4    6    1         0.1639503028E-02      0.3252460459E-02

    ------------------------------------------------
       NWT REQUIRED            6 OUTER ITERATIONS 
       AND A TOTAL OF         10 INNER ITERATIONS.
    ------------------------------------------------

 NO OUTPUT CONTROL FOR STRESS PERIOD   14   TIME STEP   11
 
 SOLVING FOR HEAD 
                                                   Max.-Head-Change                         Max.-Flux-Residual
  Residual-Control   Outer-Iter.   Inner-Iter.     Column Row Layer    Maximum-Head-Change  Column Row Layer    Maximum-Flux-Residual          L2-NORM 
          0                 1           2             3    7     1       0.2149031608E-01       4    6    1         0.6433336300E+00      0.2696620591E+01
          0                 2           2             4    6     1       0.3696362177E-02       4    6    1         0.1983970739E+00      0.4552533950E+00
          0                 3           2             4    6     1       0.1110727391E-02       4    6    1         0.5911542498E-01      0.1172710566E+00
          0                 4           2             4    6     1       0.3338914636E-03       4    6    1         0.1779619851E-01      0.3522594236E-01
          0                 5           1             4    6     1       0.1004068165E-03       4    6    1         0.5348900802E-02      0.1066657024E-01
          0                 6           1             4    6     1       0.3020461388E-04       4    6    1         0.1608672753E-02      0.3231975390E-02

    ------------------------------------------------
       NWT REQUIRED            6 OUTER ITERATIONS 
       AND A TOTAL OF         10 INNER ITERATIONS.
    ------------------------------------------------

 NO OUTPUT CONTROL FOR STRESS PERIOD   14   TIME STEP   12
 
 SOLVING FOR HEAD 
                                                   Max.-Head-Change                         Max.-Flux-Residual
  Residual-Control   Outer-Iter.   Inner-Iter.     Column Row Layer    Maximum-Head-Change  Column Row Layer    Maximum-Flux-Residual          L2-NORM 
          0                 1           2             3    7     1       0.2134636924E-01       4    6    1         0.6298530721E+00      0.2685574899E+01
          0                 2           2             4    6     1       0.3624391912E-02       4    6    1         0.1944814108E+00      0.4527024862E+00
          0                 3           2             4    6     1       0.1089701494E-02       4    6    1         0.5797058394E-01      0.1165294428E+00
          0                 4           2             4    6     1       0.3277440133E-03       4    6    1         0.1746177855E-01      0.3500503270E-01
          0                 5           1             4    6     1       0.9860806838E-04       4    6    1         0.5251101220E-02      0.1060066739E-01

    ------------------------------------------------
       NWT REQUIRED            5 OUTER ITERATIONS 
       AND A TOTAL OF          9 INNER ITERATIONS.
    ------------------------------------------------

 NO OUTPUT CONTROL FOR STRESS PERIOD   14   TIME STEP   13
 
 SOLVING FOR HEAD 
                                                   Max.-Head-Change                         Max.-Flux-Residual
  Residual-Control   Outer-Iter.   Inner-Iter.     Column Row Layer    Maximum-Head-Change  Column Row Layer    Maximum-Flux-Residual          L2-NORM 
          0                 1           2             3    7     1       0.2120500103E-01       4    9    1         0.6261955801E+00      0.2674749066E+01
          0                 2           2             4    6     1       0.3557915663E-02       4    6    1         0.1908666077E+00      0.4502591028E+00
          0                 3           2             4    6     1       0.1070262781E-02       4    6    1         0.5691292559E-01      0.1158236839E+00
          0                 4           2             4    6     1       0.3220554319E-03       4    6    1         0.1715252905E-01      0.3479453020E-01
          0                 5           1             4    6     1       0.9694208197E-04       4    6    1         0.5160580852E-02      0.1053777880E-01

    ------------------------------------------------
       NWT REQUIRED            5 OUTER ITERATIONS 
       AND A TOTAL OF          9 INNER ITERATIONS.
    ------------------------------------------------

 NO OUTPUT CONTROL FOR STRESS PERIOD   14   TIME STEP   14
 
 SOLVING FOR HEAD 
                                                   Max.-Head-Change                         Max.-Flux-Residual
  Residual-Control   Outer-Iter.   Inner-Iter.     Column Row Layer    Maximum-Head-Change  Column Row Layer    Maximum-Flux-Residual          L2-NORM 
          0                 1           2             3    7     1       0.2106630704E-01       4    9    1         0.6239169352E+00      0.2664136149E+01
          0                 2           2             4    6     1       0.3496163889E-02       4    6    1         0.1875106472E+00      0.4479025732E+00
          0                 3           2             4    6     1       0.1052187954E-02       4    6    1         0.5593022565E-01      0.1151457016E+00
          0                 4           2             4    6     1       0.3167608703E-03       4    6    1         0.1686490480E-01      0.3459205199E-01
          0                 5           1             4    6     1       0.9539000663E-04       4    6    1         0.5076309761E-02      0.1047720138E-01

    ------------------------------------------------
       NWT REQUIRED            5 OUTER ITERATIONS 
       AND A TOTAL OF          9 INNER ITERATIONS.
    ------------------------------------------------

 NO OUTPUT CONTROL FOR STRESS PERIOD   14   TIME STEP   15
 
 SOLVING FOR HEAD 
                                                   Max.-Head-Change                         Max.-Flux-Residual
  Residual-Control   Outer-Iter.   Inner-Iter.     Column Row Layer    Maximum-Head-Change  Column Row Layer    Maximum-Flux-Residual          L2-NORM 
          0                 1           2             3    7     1       0.2092986251E-01       4    9    1         0.6216514584E+00      0.2653703950E+01
          0                 2           2             4    6     1       0.3438769469E-02       4    6    1         0.1843933700E+00      0.4456269493E+00
          0                 3           2             4    6     1       0.1035371641E-02       4    6    1         0.5501666520E-01      0.1144914711E+00
          0                 4           2             4    6     1       0.3118300538E-03       4    6    1         0.1659723757E-01      0.3439639004E-01
          0                 5           1             4    6     1       0.9394313701E-04       4    6    1         0.4997808471E-02      0.1041858543E-01

    ------------------------------------------------
       NWT REQUIRED            5 OUTER ITERATIONS 
       AND A TOTAL OF          9 INNER ITERATIONS.
    ------------------------------------------------

 NO OUTPUT CONTROL FOR STRESS PERIOD   14   TIME STEP   16
 
 SOLVING FOR HEAD 
                                                   Max.-Head-Change                         Max.-Flux-Residual
  Residual-Control   Outer-Iter.   Inner-Iter.     Column Row Layer    Maximum-Head-Change  Column Row Layer    Maximum-Flux-Residual          L2-NORM 
          0                 1           2             3    7     1       0.2079599932E-01       4    9    1         0.6193869498E+00      0.2643426983E+01
          0                 2           2             4    6     1       0.3385324465E-02       4    6    1         0.1814922858E+00      0.4433991966E+00
          0                 3           2             4    6     1       0.1019696809E-02       4    6    1         0.5416578488E-01      0.1138588351E+00
          0                 4           2             4    6     1       0.3072293863E-03       4    6    1         0.1634767469E-01      0.3420710478E-01
          0                 5           1             4    6     1       0.9259182181E-04       4    6    1         0.4924544991E-02      0.1036181346E-01

    ------------------------------------------------
       NWT REQUIRED            5 OUTER ITERATIONS 
       AND A TOTAL OF          9 INNER ITERATIONS.
    ------------------------------------------------

 NO OUTPUT CONTROL FOR STRESS PERIOD   14   TIME STEP   17
 
 SOLVING FOR HEAD 
                                                   Max.-Head-Change                         Max.-Flux-Residual
  Residual-Control   Outer-Iter.   Inner-Iter.     Column Row Layer    Maximum-Head-Change  Column Row Layer    Maximum-Flux-Residual          L2-NORM 
          0                 1           2             3    7     1       0.2066431738E-01       4    9    1         0.6171375037E+00      0.2633284705E+01
          0                 2           2             4    6     1       0.3335386743E-02       4    6    1         0.1787830634E+00      0.4412359705E+00
          0                 3           2             4    6     1       0.1005036598E-02       4    6    1         0.5337058079E-01      0.1132440161E+00
          0                 4           2             4    6     1       0.3029224281E-03       4    6    1         0.1611420782E-01      0.3402291458E-01
          0                 5           1             4    6     1       0.9132558338E-04       4    6    1         0.4855942224E-02      0.1030650810E-01

    ------------------------------------------------
       NWT REQUIRED            5 OUTER ITERATIONS 
       AND A TOTAL OF          9 INNER ITERATIONS.
    ------------------------------------------------

 NO OUTPUT CONTROL FOR STRESS PERIOD   14   TIME STEP   18
 
 SOLVING FOR HEAD 
                                                   Max.-Head-Change                         Max.-Flux-Residual
  Residual-Control   Outer-Iter.   Inner-Iter.     Column Row Layer    Maximum-Head-Change  Column Row Layer    Maximum-Flux-Residual          L2-NORM 
          0                 1           2             3    7     1       0.2053444573E-01       4    9    1         0.6148967752E+00      0.2623295701E+01
          0                 2           2             4    6     1       0.3288788402E-02       4    6    1         0.1762564606E+00      0.4391320341E+00
          0                 3           2             4    6     1       0.9913429336E-03       4    6    1         0.5262839357E-01      0.1126484066E+00
          0                 4           2             4    6     1       0.2988954204E-03       4    6    1         0.1589607643E-01      0.3384433831E-01
          0                 5           1             4    6     1       0.9014048497E-04       4    6    1         0.4791782494E-02      0.1025283676E-01

    ------------------------------------------------
       NWT REQUIRED            5 OUTER ITERATIONS 
       AND A TOTAL OF          9 INNER ITERATIONS.
    ------------------------------------------------

 NO OUTPUT CONTROL FOR STRESS PERIOD   14   TIME STEP   19
 
 SOLVING FOR HEAD 
                                                   Max.-Head-Change                         Max.-Flux-Residual
  Residual-Control   Outer-Iter.   Inner-Iter.     Column Row Layer    Maximum-Head-Change  Column Row Layer    Maximum-Flux-Residual          L2-NORM 
          0                 1           2             3    7     1       0.2040675779E-01       4    9    1         0.6126718154E+00      0.2613448900E+01
          0                 2           2             4    6     1       0.3247228376E-02       4    6    1         0.1739533666E+00      0.4370801507E+00
          0                 3           2             4    6     1       0.9794976013E-03       4    6    1         0.5197140683E-01      0.1120713931E+00
          0                 4           2             4    6     1       0.2955239433E-03       4    6    1         0.1570888730E-01      0.3367188788E-01
          0                 5           1             4    6     1       0.8918231957E-04       4    6    1         0.4738523427E-02      0.1020118385E-01

    ------------------------------------------------
       NWT REQUIRED            5 OUTER ITERATIONS 
       AND A TOTAL OF          9 INNER ITERATIONS.
    ------------------------------------------------

 NO OUTPUT CONTROL FOR STRESS PERIOD   14   TIME STEP   20
 
 SOLVING FOR HEAD 
                                                   Max.-Head-Change                         Max.-Flux-Residual
  Residual-Control   Outer-Iter.   Inner-Iter.     Column Row Layer    Maximum-Head-Change  Column Row Layer    Maximum-Flux-Residual          L2-NORM 
          0                 1           2             3    7     1       0.2028089652E-01       4    9    1         0.6104561301E+00      0.2603726203E+01
          0                 2           2             4    6     1       0.3207461682E-02       4    6    1         0.1718030096E+00      0.4350717093E+00
          0                 3           2             4    6     1       0.9677639403E-03       4    6    1         0.5133742166E-01      0.1115063512E+00
          0                 4           2             4    6     1       0.2920596580E-03       4    6    1         0.1552178385E-01      0.3350221992E-01
          0                 5           1             4    7     1       0.8881194738E-04       4    6    1         0.4683274330E-02      0.1015010081E-01

    ------------------------------------------------
       NWT REQUIRED            5 OUTER ITERATIONS 
       AND A TOTAL OF          9 INNER ITERATIONS.
    ------------------------------------------------

 NO OUTPUT CONTROL FOR STRESS PERIOD   14   TIME STEP   21
 
 SOLVING FOR HEAD 
                                                   Max.-Head-Change                         Max.-Flux-Residual
  Residual-Control   Outer-Iter.   Inner-Iter.     Column Row Layer    Maximum-Head-Change  Column Row Layer    Maximum-Flux-Residual          L2-NORM 
          0                 1           2             3    7     1       0.2015676630E-01       4    9    1         0.6082564412E+00      0.2594137736E+01
          0                 2           2             4    6     1       0.3170053633E-02       4    6    1         0.1697811197E+00      0.4331078747E+00
          0                 3           2             4    6     1       0.9567164790E-03       4    6    1         0.5074093432E-01      0.1109554384E+00
          0                 4           2             4    6     1       0.2887951266E-03       4    6    1         0.1534558206E-01      0.3333670591E-01
          0                 5           1             4    7     1       0.8856861735E-04       4    7    1         0.4646251251E-02      0.1010023454E-01

    ------------------------------------------------
       NWT REQUIRED            5 OUTER ITERATIONS 
       AND A TOTAL OF          9 INNER ITERATIONS.
    ------------------------------------------------

 NO OUTPUT CONTROL FOR STRESS PERIOD   14   TIME STEP   22
 
 SOLVING FOR HEAD 
                                                   Max.-Head-Change                         Max.-Flux-Residual
  Residual-Control   Outer-Iter.   Inner-Iter.     Column Row Layer    Maximum-Head-Change  Column Row Layer    Maximum-Flux-Residual          L2-NORM 
          0                 1           2             3    7     1       0.2003428382E-01       4    9    1         0.6060596414E+00      0.2584656400E+01
          0                 2           2             4    6     1       0.3134725489E-02       4    6    1         0.1678724493E+00      0.4311798284E+00
          0                 3           2             4    6     1       0.9462747189E-03       4    6    1         0.5017752062E-01      0.1104158418E+00
          0                 4           2             4    7     1       0.2876749008E-03       4    6    1         0.1517900541E-01      0.3317450634E-01
          0                 5           1             4    7     1       0.8831154372E-04       4    7    1         0.4633242164E-02      0.1005133698E-01

    ------------------------------------------------
       NWT REQUIRED            5 OUTER ITERATIONS 
       AND A TOTAL OF          9 INNER ITERATIONS.
    ------------------------------------------------

 NO OUTPUT CONTROL FOR STRESS PERIOD   14   TIME STEP   23
 
 SOLVING FOR HEAD 
                                                   Max.-Head-Change                         Max.-Flux-Residual
  Residual-Control   Outer-Iter.   Inner-Iter.     Column Row Layer    Maximum-Head-Change  Column Row Layer    Maximum-Flux-Residual          L2-NORM 
          0                 1           2             3    7     1       0.1991336894E-01       4    9    1         0.6038853171E+00      0.2575289538E+01
          0                 2           2             4    6     1       0.3101294150E-02       4    6    1         0.1660670614E+00      0.4292849997E+00
          0                 3           2             4    6     1       0.9363848480E-03       4    6    1         0.4964426483E-01      0.1098863674E+00
          0                 4           2             4    7     1       0.2868158689E-03       4    7    1         0.1504334455E-01      0.3301525958E-01
          0                 5           1             4    7     1       0.8803721042E-04       4    7    1         0.4619260511E-02      0.1000329904E-01

    ------------------------------------------------
       NWT REQUIRED            5 OUTER ITERATIONS 
       AND A TOTAL OF          9 INNER ITERATIONS.
    ------------------------------------------------

 NO OUTPUT CONTROL FOR STRESS PERIOD   14   TIME STEP   24
 
 SOLVING FOR HEAD 
                                                   Max.-Head-Change                         Max.-Flux-Residual
  Residual-Control   Outer-Iter.   Inner-Iter.     Column Row Layer    Maximum-Head-Change  Column Row Layer    Maximum-Flux-Residual          L2-NORM 
          0                 1           2             3    7     1       0.1979394817E-01       4    9    1         0.6017137947E+00      0.2566018691E+01
          0                 2           2             4    6     1       0.3069679219E-02       4    6    1         0.1643604277E+00      0.4274234320E+00
          0                 3           2             4    7     1       0.9310050560E-03       4    6    1         0.4913990404E-01      0.1093675620E+00
          0                 4           2             4    7     1       0.2859224012E-03       4    7    1         0.1499777810E-01      0.3285916116E-01
          0                 5           1             4    7     1       0.8775352347E-04       4    7    1         0.4604741014E-02      0.9956189672E-02

    ------------------------------------------------
       NWT REQUIRED            5 OUTER ITERATIONS 
       AND A TOTAL OF          9 INNER ITERATIONS.
    ------------------------------------------------

 NO OUTPUT CONTROL FOR STRESS PERIOD   14   TIME STEP   25
 
 SOLVING FOR HEAD 
                                                   Max.-Head-Change                         Max.-Flux-Residual
  Residual-Control   Outer-Iter.   Inner-Iter.     Column Row Layer    Maximum-Head-Change  Column Row Layer    Maximum-Flux-Residual          L2-NORM 
          0                 1           2             3    7     1       0.1967620153E-01       4    9    1         0.5995582110E+00      0.2556857365E+01
          0                 2           2             4    6     1       0.3039724218E-02       4    6    1         0.1627441513E+00      0.4255920645E+00
          0                 3           2             4    7     1       0.9280529929E-03       4    6    1         0.4866193880E-01      0.1088578956E+00
          0                 4           2             4    7     1       0.2849867028E-03       4    7    1         0.1494981821E-01      0.3270574553E-01
          0                 5           1             4    7     1       0.8745817184E-04       4    7    1         0.4589559254E-02      0.9909864460E-02

    ------------------------------------------------
       NWT REQUIRED            5 OUTER ITERATIONS 
       AND A TOTAL OF          9 INNER ITERATIONS.
    ------------------------------------------------

 NO OUTPUT CONTROL FOR STRESS PERIOD   14   TIME STEP   26
 
 SOLVING FOR HEAD 
                                                   Max.-Head-Change                         Max.-Flux-Residual
  Residual-Control   Outer-Iter.   Inner-Iter.     Column Row Layer    Maximum-Head-Change  Column Row Layer    Maximum-Flux-Residual          L2-NORM 
          0                 1           2             3    7     1       0.1955982053E-01       4    9    1         0.5974116509E+00      0.2547797652E+01
          0                 2           2             4    6     1       0.3011294169E-02       4    6    1         0.1612107338E+00      0.4237875480E+00
          0                 3           2             4    7     1       0.9257022002E-03       4    7    1         0.4849030856E-01      0.1083579346E+00
          0                 4           2             4    7     1       0.2843142027E-03       4    7    1         0.1491255745E-01      0.3255559605E-01
          0                 5           1             4    7     1       0.8726762549E-04       4    7    1         0.4578926826E-02      0.9864655325E-02

    ------------------------------------------------
       NWT REQUIRED            5 OUTER ITERATIONS 
       AND A TOTAL OF          9 INNER ITERATIONS.
    ------------------------------------------------

 NO OUTPUT CONTROL FOR STRESS PERIOD   14   TIME STEP   27
 
 SOLVING FOR HEAD 
                                                   Max.-Head-Change                         Max.-Flux-Residual
  Residual-Control   Outer-Iter.   Inner-Iter.     Column Row Layer    Maximum-Head-Change  Column Row Layer    Maximum-Flux-Residual          L2-NORM 
          0                 1           2             3    7     1       0.1944478620E-01       4    9    1         0.5952804464E+00      0.2538832503E+01
          0                 2           2             4    7     1       0.3001993869E-02       4    6    1         0.1597542948E+00      0.4220141823E+00
          0                 3           2             4    7     1       0.9225482744E-03       4    7    1         0.4832828326E-01      0.1078655692E+00
          0                 4           2             4    7     1       0.2833230046E-03       4    7    1         0.1486143609E-01      0.3240728899E-01
          0                 5           1             4    7     1       0.8695705235E-04       4    7    1         0.4562876325E-02      0.9819838502E-02

    ------------------------------------------------
       NWT REQUIRED            5 OUTER ITERATIONS 
       AND A TOTAL OF          9 INNER ITERATIONS.
    ------------------------------------------------

 NO OUTPUT CONTROL FOR STRESS PERIOD   14   TIME STEP   28
 
 SOLVING FOR HEAD 
                                                   Max.-Head-Change                         Max.-Flux-Residual
  Residual-Control   Outer-Iter.   Inner-Iter.     Column Row Layer    Maximum-Head-Change  Column Row Layer    Maximum-Flux-Residual          L2-NORM 
          0                 1           2             3    7     1       0.1933130203E-01       4    5    1         0.5936622401E+00      0.2529961425E+01
          0                 2           2             4    7     1       0.2992489912E-02       4    6    1         0.1583684030E+00      0.4202637955E+00
          0                 3           2             4    7     1       0.9195404637E-03       4    7    1         0.4817417463E-01      0.1073808002E+00
          0                 4           2             4    7     1       0.2823748132E-03       4    7    1         0.1481264244E-01      0.3226126154E-01
          0                 5           1             4    7     1       0.8665916060E-04       4    7    1         0.4547511231E-02      0.9775705037E-02

    ------------------------------------------------
       NWT REQUIRED            5 OUTER ITERATIONS 
       AND A TOTAL OF          9 INNER ITERATIONS.
    ------------------------------------------------

 NO OUTPUT CONTROL FOR STRESS PERIOD   14   TIME STEP   29
 
 SOLVING FOR HEAD 
                                                   Max.-Head-Change                         Max.-Flux-Residual
  Residual-Control   Outer-Iter.   Inner-Iter.     Column Row Layer    Maximum-Head-Change  Column Row Layer    Maximum-Flux-Residual          L2-NORM 
          0                 1           2             3    7     1       0.1921881886E-01       4    5    1         0.5930480662E+00      0.2521182080E+01
          0                 2           2             4    7     1       0.2982495218E-02       4    6    1         0.1570427063E+00      0.4185337686E+00
          0                 3           2             4    7     1       0.9163950720E-03       4    7    1         0.4801234035E-01      0.1069017549E+00
          0                 4           2             4    7     1       0.2813880836E-03       4    7    1         0.1476168390E-01      0.3211689961E-01
          0                 5           1             4    7     1       0.8635048505E-04       4    7    1         0.4531539873E-02      0.9732058770E-02

    ------------------------------------------------
       NWT REQUIRED            5 OUTER ITERATIONS 
       AND A TOTAL OF          9 INNER ITERATIONS.
    ------------------------------------------------

 NO OUTPUT CONTROL FOR STRESS PERIOD   14   TIME STEP   30



 STREAM LISTING     PERIOD     14   STEP       30

 LAYER ROW COL. STREAM  RCH.  FLOW INTO     FLOW TO   FLOW OUT OF   OVRLND.     DIRECT     STREAM       STREAM     STREAM     STREAM   STREAMBED  STREAMBED
                SEG.NO.  NO.  STRM. RCH.    AQUIFER    STRM. RCH.    RUNOFF     PRECIP       ET          HEAD       DEPTH      WIDTH   CONDCTNC.   GRADIENT

   1    1    1     1     1    1.4250E+01  1.8169E-01   1.4069E+01  0.000E+00  0.000E+00  0.000E+00  1.09404E+03  9.953E-01  1.011E+01  4.548E-02  1.332E+00
   1    2    2     1     2    1.4069E+01  2.7999E-01   1.3789E+01  0.000E+00  0.000E+00  0.000E+00  1.08905E+03  9.906E-01  1.002E+01  7.016E-02  1.330E+00
   1    3    3     1     3    1.3789E+01  2.3745E-01   1.3551E+01  0.000E+00  0.000E+00  0.000E+00  1.08340E+03  9.853E-01  9.930E+00  5.958E-02  1.328E+00
   1    3    4     1     4    1.3551E+01  2.1755E-01   1.3334E+01  0.000E+00  0.000E+00  0.000E+00  1.07839E+03  9.805E-01  9.848E+00  5.465E-02  1.327E+00
   1    4    5     2     1    1.1334E+01  2.9214E-01   1.1041E+01  0.000E+00  0.000E+00  0.000E+00  1.07268E+03  7.454E-01  1.200E+01  7.800E-02  1.248E+00
   1    5    6     2     2    1.1041E+01  2.2410E-01   1.0817E+01  0.000E+00  0.000E+00  0.000E+00  1.06724E+03  7.350E-01  1.200E+01  6.000E-02  1.245E+00
   1    6    6     2     3    1.0817E+01  2.2356E-01   1.0594E+01  0.000E+00  0.000E+00  0.000E+00  1.06252E+03  7.260E-01  1.200E+01  6.000E-02  1.242E+00
   1    7    6     2     4    1.0594E+01  2.2301E-01   1.0371E+01  0.000E+00  0.000E+00  0.000E+00  1.05779E+03  7.168E-01  1.200E+01  6.000E-02  1.239E+00
   1    8    6     2     5    1.0371E+01  2.2246E-01   1.0148E+01  0.000E+00  0.000E+00  0.000E+00  1.05307E+03  7.077E-01  1.200E+01  6.000E-02  1.236E+00
   1    3    5     3     1    2.0000E+00  2.8252E-01   1.7175E+00  0.000E+00  0.000E+00  0.000E+00  1.07555E+03  1.909E+00  9.636E+00  7.227E-02  1.955E+00
   1    3    6     3     2    1.7175E+00  2.4905E-01   1.4684E+00  0.000E+00  0.000E+00  0.000E+00  1.07264E+03  1.727E+00  8.909E+00  6.682E-02  1.864E+00
   1    3    7     3     3    1.4684E+00  1.9718E-01   1.2712E+00  0.000E+00  0.000E+00  0.000E+00  1.06987E+03  1.555E+00  8.218E+00  5.547E-02  1.777E+00
   1    4    8     3     4    1.2712E+00  2.2567E-01   1.0456E+00  0.000E+00  0.000E+00  0.000E+00  1.06682E+03  1.364E+00  7.455E+00  6.709E-02  1.682E+00
   1    5    8     3     5    1.0456E+00  1.5790E-01   8.8768E-01  0.000E+00  0.000E+00  0.000E+00  1.06362E+03  1.164E+00  6.655E+00  4.991E-02  1.582E+00
   1    6    8     3     6    8.8768E-01  5.5980E-02   8.3170E-01  0.000E+00  0.000E+00  0.000E+00  1.06158E+03  1.036E+00  6.145E+00  1.844E-02  1.518E+00
   1    5   10     4     1    1.0000E+01  9.0919E-02   9.9091E+00  0.000E+00  0.000E+00  0.000E+00  1.07836E+03  6.368E-01  1.000E+01  2.500E-02  1.212E+00
   1    5    9     4     2    9.9091E+00  1.8158E-01   9.7275E+00  0.000E+00  0.000E+00  0.000E+00  1.07154E+03  6.315E-01  1.000E+01  5.000E-02  1.211E+00
   1    6    8     4     3    9.7275E+00  1.2689E-01   9.6006E+00  0.000E+00  0.000E+00  0.000E+00  1.06381E+03  6.256E-01  1.000E+01  3.500E-02  1.209E+00
   1    6    8     5     1    1.0432E+01  2.2686E-01   1.0205E+01  0.000E+00  0.000E+00  0.000E+00  1.05868E+03  6.790E-01  1.542E+01  6.166E-02  1.226E+00
   1    7    7     5     2    1.0205E+01  2.7894E-01   9.9265E+00  0.000E+00  0.000E+00  0.000E+00  1.05417E+03  6.732E-01  1.519E+01  7.594E-02  1.224E+00
   1    8    7     5     3    9.9265E+00  1.9221E-01   9.7343E+00  0.000E+00  0.000E+00  0.000E+00  1.04992E+03  6.676E-01  1.497E+01  5.241E-02  1.223E+00
   1    8    6     5     4    9.7343E+00  1.3577E-01   9.5985E+00  0.000E+00  0.000E+00  0.000E+00  1.04691E+03  6.637E-01  1.482E+01  3.706E-02  1.221E+00
   1    9    6     6     1    1.9747E+01  2.4336E-01   1.9503E+01  0.000E+00  0.000E+00  0.000E+00  1.04378E+03  1.056E+00  1.200E+01  6.000E-02  1.352E+00
   1   10    7     6     2    1.9503E+01  2.4289E-01   1.9261E+01  0.000E+00  0.000E+00  0.000E+00  1.03923E+03  1.048E+00  1.200E+01  6.000E-02  1.349E+00
   1   11    7     6     3    1.9261E+01  2.4241E-01   1.9018E+01  0.000E+00  0.000E+00  0.000E+00  1.03468E+03  1.040E+00  1.200E+01  6.000E-02  1.347E+00
   1   12    7     6     4    1.9018E+01  2.4194E-01   1.8776E+01  0.000E+00  0.000E+00  0.000E+00  1.03012E+03  1.032E+00  1.200E+01  6.000E-02  1.344E+00
   1   13    7     6     5    1.8776E+01 -5.6398E-04   1.8777E+01  0.000E+00  0.000E+00  0.000E+00  1.02694E+03  1.028E+00  1.200E+01  2.400E-01 -7.833E-04
   1   14    9     7     1    1.5000E+02  1.3380E+00   1.4866E+02  0.000E+00  0.000E+00  0.000E+00  1.03987E+03  2.288E+00  5.529E+01  5.593E-01  7.974E-01
   1   13    8     7     2    1.4866E+02  1.8574E+00   1.4680E+02  0.000E+00  0.000E+00  0.000E+00  1.03478E+03  2.279E+00  5.526E+01  6.148E-01  1.007E+00
   1   13    7     7     3    1.4680E+02  1.5355E+00   1.4527E+02  0.000E+00  0.000E+00  0.000E+00  1.02969E+03  2.270E+00  5.522E+01  5.584E-01  9.166E-01
   1   13    6     8     1    1.6405E+02  9.6854E-01   1.6308E+02  0.000E+00  0.000E+00  0.000E+00  1.02478E+03  2.910E+00  4.219E+01  4.299E-01  7.509E-01
   1   13    5     8     2    1.6308E+02  2.3545E-01   1.6284E+02  0.000E+00  0.000E+00  0.000E+00  1.01853E+03  2.906E+00  4.213E+01  4.294E-01  1.828E-01
   1   13    4     8     3    1.6284E+02 -2.2089E+00   1.6505E+02  0.000E+00  0.000E+00  0.000E+00  1.01229E+03  2.912E+00  4.223E+01  4.303E+00 -1.711E-01
   1   13    3     8     4    1.6505E+02 -3.5498E+00   1.6860E+02  0.000E+00  0.000E+00  0.000E+00  1.00606E+03  2.931E+00  4.251E+01  4.331E+00 -2.732E-01
   1   13    2     8     5    1.6860E+02 -2.5708E+00   1.7117E+02  0.000E+00  0.000E+00  0.000E+00  9.99826E+02  2.951E+00  4.280E+01  4.361E+00 -1.965E-01
   1   13    1     8     6    1.7117E+02 -1.9896E+00   1.7316E+02  0.000E+00  0.000E+00  0.000E+00  9.94841E+02  2.966E+00  4.301E+01  2.630E+00 -2.522E-01
   1    8    6     9     1    0.0000E+00  0.0000E+00   0.0000E+00  0.000E+00  0.000E+00  0.000E+00  1.07875E+03  0.000E+00  4.000E+00  0.000E+00  1.000E+00
   1    8    5     9     2    0.0000E+00  0.0000E+00   0.0000E+00  0.000E+00  0.000E+00  0.000E+00  1.07825E+03  0.000E+00  4.000E+00  0.000E+00  1.000E+00





UNSATURATED ZONE PACKAGE VOLUMETRIC BUDGET FOR  TIME STEP    30 STRESS PERIOD   14
  ------------------------------------------------------------------------------



     CUMULATIVE VOLUMES      L**3       RATES FOR THIS TIME STEP      L**3/T
     ------------------                 ------------------------

           IN:                                      IN:
           ---                                      ---
        INFILTRATION =  2627794292.1491          INFILTRATION =           0.8475

          OUT:                                     OUT:
          ----                                     ----
              UZF ET =   434007341.3774                UZF ET =           0.7500
        UZF RECHARGE =  1804042298.0957          UZF RECHARGE =          11.2081

            IN - OUT =   389744652.6760              IN - OUT =         -11.1106

          STORAGE:                                 STORAGE:
          --------                                 --------
      STORAGE CHANGE =   390224713.3492        STORAGE CHANGE =         -11.1106

 PERCENT DISCREPANCY IS DIFFERENCE BETWEEN IN-OUT MINUS CHANGE IN STORAGE
 DIVIDED BY THE AVERAGE OF IN AND OUT TIMES 100

 PERCENT DISCREPANCY =          -0.00     PERCENT DISCREPANCY =           0.00






1
  VOLUMETRIC BUDGET FOR AGRICULTURAL FIELDS AT  END OF TIME STEP   30, STRESS PERIOD  14
  ------------------------------------------------------------------------------

     CUMULATIVE VOLUMES      L**3       RATES FOR THIS TIME STEP      L**3/T
     ------------------                 ------------------------

           IN:                                      IN:
           ---                                      ---
               AG WELLS  =  2251250432.0000                 AG WELLS  =           0.0000
      DIVERSION SEGMENTS =   347499584.0000        DIVERSION SEGMENTS =           0.0000
       IRRIGATION PONDS  =           0.0000         IRRIGATION PONDS  =           0.0000
           GW IRRIGATION =           0.0000             GW IRRIGATION =           0.0000
           SW IRRIGATION =           0.0000             SW IRRIGATION =           0.0000
        SYSTEM LOSSES GW =           0.0000          SYSTEM LOSSES GW =           0.0000
        SYSTEM LOSSES SW =           0.0000          SYSTEM LOSSES SW =           0.0000

                TOTAL IN =  2598749952.0000                  TOTAL IN =           0.0000

          OUT:                                     OUT:
          ----                                     ----
               AG WELLS  =           0.0000                 AG WELLS  =           0.0000
      DIVERSION SEGMENTS =           0.0000        DIVERSION SEGMENTS =           0.0000
       IRRIGATION PONDS  =           0.0000         IRRIGATION PONDS  =           0.0000
           GW IRRIGATION =  2251250432.0000             GW IRRIGATION =           0.0000
           SW IRRIGATION =   347506400.0000             SW IRRIGATION =           0.0000
        SYSTEM LOSSES GW =           0.0000          SYSTEM LOSSES GW =           0.0000
        SYSTEM LOSSES SW =           0.0000          SYSTEM LOSSES SW =           0.0000

               TOTAL OUT =  2598756864.0000                 TOTAL OUT =           0.0000

                IN - OUT =       -6912.0000                  IN - OUT =           0.0000

     PERCENT DISCREPANCY =          -0.00         PERCENT DISCREPANCY =           0.00



1
  VOLUMETRIC BUDGET FOR ENTIRE MODEL AT END OF TIME STEP   30, STRESS PERIOD  14
  ------------------------------------------------------------------------------

     CUMULATIVE VOLUMES      L**3       RATES FOR THIS TIME STEP      L**3/T
     ------------------                 ------------------------

           IN:                                      IN:
           ---                                      ---
             STORAGE     =  2451173376.0000               STORAGE     =           3.4500
       CONSTANT HEAD     =           0.0000         CONSTANT HEAD     =           0.0000
     HEAD DEP BOUNDS     =     9794874.0000       HEAD DEP BOUNDS     =           0.2859
      STREAM LEAKAGE     =   411110880.0000        STREAM LEAKAGE     =          11.4090
        UZF RECHARGE     =  1804042112.0000          UZF RECHARGE     =          11.2081
               GW ET     =           0.0000                 GW ET     =           0.0000
     SURFACE LEAKAGE     =           0.0000       SURFACE LEAKAGE     =           0.0000
           AG WELLS      =           0.0000             AG WELLS      =           0.0000

                TOTAL IN =  4676121088.0000                  TOTAL IN =          26.3529

          OUT:                                     OUT:
          ----                                     ----
             STORAGE     =  2048198016.0000               STORAGE     =          15.7373
       CONSTANT HEAD     =           0.0000         CONSTANT HEAD     =           0.0000
     HEAD DEP BOUNDS     =     9962628.0000       HEAD DEP BOUNDS     =           0.2887
      STREAM LEAKAGE     =   365459776.0000        STREAM LEAKAGE     =          10.3196
        UZF RECHARGE     =           0.0000          UZF RECHARGE     =           0.0000
               GW ET     =     1207612.8750                 GW ET     =           0.0000
     SURFACE LEAKAGE     =           0.0000       SURFACE LEAKAGE     =           0.0000
           AG WELLS      =  2251250432.0000             AG WELLS      =           0.0000

               TOTAL OUT =  4676078592.0000                 TOTAL OUT =          26.3457

                IN - OUT =       42496.0000                  IN - OUT =       7.2250E-03

     PERCENT DISCREPANCY =           0.00         PERCENT DISCREPANCY =           0.03






         TIME SUMMARY AT END OF TIME STEP   30 IN STRESS PERIOD   14
                    SECONDS     MINUTES      HOURS       DAYS        YEARS
                    -----------------------------------------------------------
   TIME STEP LENGTH  87667.      1461.1      24.352      1.0147     2.77799E-03
 STRESS PERIOD TIME 2.63000E+06  43833.      730.56      30.440     8.33397E-02
         TOTAL TIME 3.42763E+07 5.71272E+05  9521.2      396.72      1.0862    
1
1
                            STRESS PERIOD NO.   15, LENGTH =   2630000.    
                            -----------------------------------------------

                              NUMBER OF TIME STEPS =    30

                               MULTIPLIER FOR DELT =     1.000

                            INITIAL TIME STEP SIZE =   87666.66    

 REUSING NON-PARAMETER GHB CELLS FROM LAST STRESS PERIOD

      2 GHB CELLS

 REUSING STREAM SEGMENT DATA FROM LAST STRESS PERIOD



            AREAL INFILTRATION RATE
 READING ON UNIT   19 WITH FORMAT: (FREE)              

            1           2           3           4           5           6           7           8           9          10
 ........................................................................................................................
   1   1.0000E-10  2.0000E-10   0.000       0.000       0.000       0.000       0.000       0.000       0.000       0.000    
   2   2.0000E-10  1.0000E-10  2.0000E-10   0.000       0.000      8.0000E-10  8.0000E-10  5.0000E-10   0.000       0.000    
   3    0.000      5.0000E-10  1.0000E-10  1.0000E-10  8.0000E-10  8.0000E-10  5.0000E-10  5.0000E-10   0.000       0.000    
   4   8.0000E-10  5.0000E-10  1.0000E-10  1.0000E-10  1.0000E-10  1.0000E-10  1.0000E-10  1.0000E-10  2.0000E-10   0.000    
   5   8.0000E-10  5.0000E-10  1.0000E-10  1.0000E-10  1.0000E-10  1.0000E-10  1.0000E-10  1.0000E-10  1.0000E-10  1.0000E-10
   6   8.0000E-10  5.0000E-10  5.0000E-10  2.0000E-10  2.0000E-10  1.0000E-10  1.0000E-10  1.0000E-10  1.0000E-10  5.0000E-10
   7   8.0000E-10  5.0000E-10  5.0000E-10  2.0000E-10  2.0000E-10  1.0000E-10  1.0000E-10  2.0000E-10  2.0000E-10   0.000    
   8    0.000      5.0000E-10  5.0000E-10  2.0000E-10  2.0000E-10  1.0000E-10  1.0000E-10  2.0000E-10  5.0000E-10   0.000    
   9    0.000      5.0000E-10  5.0000E-10  2.0000E-10  2.0000E-10  1.0000E-10  1.0000E-10  2.0000E-10  5.0000E-10   0.000    
  10    0.000      5.0000E-10  5.0000E-10  2.0000E-10  2.0000E-10  1.0000E-10  1.0000E-10  2.0000E-10  5.0000E-10  8.0000E-10
  11    0.000      1.0000E-10  1.0000E-10  1.0000E-10  1.0000E-10  1.0000E-10  1.0000E-10  2.0000E-10  5.0000E-10   0.000    
  12   1.0000E-10  1.0000E-10  1.0000E-10  1.0000E-10  1.0000E-10  1.0000E-10  1.0000E-10  1.0000E-10  2.0000E-10   0.000    
  13   1.0000E-10  1.0000E-10  2.0000E-10  2.0000E-10  2.0000E-10  2.0000E-10  2.0000E-10  1.0000E-10  1.0000E-10   0.000    
  14    0.000      2.0000E-10  5.0000E-10  5.0000E-10  5.0000E-10  5.0000E-10  5.0000E-10  2.0000E-10  1.0000E-10   0.000    
  15    0.000       0.000      8.0000E-10  8.0000E-10  8.0000E-10  8.0000E-10   0.000       0.000       0.000       0.000    

                  ET RATE =  5.000000E-10

 USING ET EXTINCTION DEPTH FROM PREVIOUS STRESS PERIOD. CURRENT PERIOD IS:      15

 USING EXTINCTION WATER CONTENT FROM PREVIOUS STRESS PERIOD. CURRENT PERIOD IS:      15

 USING AIR ENTRY PRESSURE FROM PREVIOUS STRESS PERIOD. CURRENT PERIOD IS:      15

 USING ROOT PRESSURE HEAD FROM PREVIOUS STRESS PERIOD. CURRENT PERIOD IS:      15

 USING ROOT ACTIVITY FROM PREVIOUS STRESS PERIOD. CURRENT PERIOD IS:      15

 PROCESSING AG STRESS PERIOD DATA

 READING AG STRESS PERIOD DATA

 READING IRRIGATION SEGMENT

 READING IRRIGATION WELL

 READING SUPPLEMENTAL WELL

 NO IRRPOND OR REUSING IRRPOND DATA FROM LAST STRESS PERIOD

 END PROCESSING AG STRESS PERIOD DATA OPTIONS
 
 SOLVING FOR HEAD 
                                                   Max.-Head-Change                         Max.-Flux-Residual
  Residual-Control   Outer-Iter.   Inner-Iter.     Column Row Layer    Maximum-Head-Change  Column Row Layer    Maximum-Flux-Residual          L2-NORM 
          0                 1           2             3    7     1       0.1910778319E-01       4    5    1         0.5923247885E+00      0.2512489048E+01
          0                 2           2             4    7     1       0.2972308232E-02       4    7    1         0.1562596378E+00      0.4168307109E+00
          0                 3           2             4    7     1       0.9131990541E-03       4    7    1         0.4784752170E-01      0.1064312319E+00
          0                 4           2             4    7     1       0.2803881964E-03       4    7    1         0.1470994280E-01      0.3197508037E-01
          0                 5           1             4    7     1       0.8603844651E-04       4    7    1         0.4515365874E-02      0.9689168508E-02

    ------------------------------------------------
       NWT REQUIRED            5 OUTER ITERATIONS 
       AND A TOTAL OF          9 INNER ITERATIONS.
    ------------------------------------------------

 NO OUTPUT CONTROL FOR STRESS PERIOD   15   TIME STEP    1
 
 SOLVING FOR HEAD 
                                                   Max.-Head-Change                         Max.-Flux-Residual
  Residual-Control   Outer-Iter.   Inner-Iter.     Column Row Layer    Maximum-Head-Change  Column Row Layer    Maximum-Flux-Residual          L2-NORM 
          0                 1           2             3    7     1       0.1899814682E-01       4    5    1         0.5914876415E+00      0.2505199035E+01
          0                 2           2             4    7     1       0.2961813938E-02       4    7    1         0.1557144755E+00      0.4152055556E+00
          0                 3           2             4    7     1       0.9099195768E-03       4    7    1         0.4767790068E-01      0.1059702200E+00
          0                 4           2             4    7     1       0.2793657657E-03       4    7    1         0.1465689989E-01      0.3183590374E-01
          0                 5           1             4    7     1       0.8572035704E-04       4    7    1         0.4498840723E-02      0.9647058765E-02

    ------------------------------------------------
       NWT REQUIRED            5 OUTER ITERATIONS 
       AND A TOTAL OF          9 INNER ITERATIONS.
    ------------------------------------------------

 NO OUTPUT CONTROL FOR STRESS PERIOD   15   TIME STEP    2
 
 SOLVING FOR HEAD 
                                                   Max.-Head-Change                         Max.-Flux-Residual
  Residual-Control   Outer-Iter.   Inner-Iter.     Column Row Layer    Maximum-Head-Change  Column Row Layer    Maximum-Flux-Residual          L2-NORM 
          0                 1           2             3    7     1       0.1888962087E-01       4    5    1         0.5905782086E+00      0.2498139738E+01
          0                 2           2             4    7     1       0.2951133310E-02       4    7    1         0.1551585182E+00      0.4136804964E+00
          0                 3           2             4    7     1       0.9065905683E-03       4    7    1         0.4750538182E-01      0.1055183558E+00
          0                 4           2             4    7     1       0.2783303063E-03       4    7    1         0.1460308923E-01      0.3169900913E-01
          0                 5           1             4    7     1       0.8539888556E-04       4    7    1         0.4482114222E-02      0.9605626615E-02

    ------------------------------------------------
       NWT REQUIRED            5 OUTER ITERATIONS 
       AND A TOTAL OF          9 INNER ITERATIONS.
    ------------------------------------------------

 NO OUTPUT CONTROL FOR STRESS PERIOD   15   TIME STEP    3
 
 SOLVING FOR HEAD 
                                                   Max.-Head-Change                         Max.-Flux-Residual
  Residual-Control   Outer-Iter.   Inner-Iter.     Column Row Layer    Maximum-Head-Change  Column Row Layer    Maximum-Flux-Residual          L2-NORM 
          0                 1           2             3    7     1       0.1878216760E-01       4    5    1         0.5895907730E+00      0.2489722950E+01
          0                 2           2             4    7     1       0.2940216435E-02       4    7    1         0.1545891845E+00      0.4120489260E+00
          0                 3           2             4    7     1       0.9031964226E-03       4    7    1         0.4732915755E-01      0.1050692586E+00
          0                 4           2             4    7     1       0.2772769431E-03       4    7    1         0.1454825828E-01      0.3156359240E-01
          0                 5           1             4    7     1       0.8507251116E-04       4    7    1         0.4465107520E-02      0.9564628403E-02

    ------------------------------------------------
       NWT REQUIRED            5 OUTER ITERATIONS 
       AND A TOTAL OF          9 INNER ITERATIONS.
    ------------------------------------------------

 NO OUTPUT CONTROL FOR STRESS PERIOD   15   TIME STEP    4
 
 SOLVING FOR HEAD 
                                                   Max.-Head-Change                         Max.-Flux-Residual
  Residual-Control   Outer-Iter.   Inner-Iter.     Column Row Layer    Maximum-Head-Change  Column Row Layer    Maximum-Flux-Residual          L2-NORM 
          0                 1           2             3    7     1       0.1867575522E-01       4    5    1         0.5885176285E+00      0.2481385649E+01
          0                 2           2             4    7     1       0.2929180075E-02       4    7    1         0.1540127759E+00      0.4104367093E+00
          0                 3           2             4    7     1       0.8997716566E-03       4    7    1         0.4715109055E-01      0.1046259630E+00
          0                 4           2             4    7     1       0.2762158853E-03       4    7    1         0.1449295775E-01      0.3142981985E-01
          0                 5           1             4    7     1       0.8474425442E-04       4    7    1         0.4447983503E-02      0.9524137706E-02

    ------------------------------------------------
       NWT REQUIRED            5 OUTER ITERATIONS 
       AND A TOTAL OF          9 INNER ITERATIONS.
    ------------------------------------------------

 NO OUTPUT CONTROL FOR STRESS PERIOD   15   TIME STEP    5
 
 SOLVING FOR HEAD 
                                                   Max.-Head-Change                         Max.-Flux-Residual
  Residual-Control   Outer-Iter.   Inner-Iter.     Column Row Layer    Maximum-Head-Change  Column Row Layer    Maximum-Flux-Residual          L2-NORM 
          0                 1           2             3    7     1       0.1857059601E-01       4    5    1         0.5873806135E+00      0.2473142246E+01
          0                 2           2             4    7     1       0.2917966161E-02       4    7    1         0.1534262959E+00      0.4088399535E+00
          0                 3           2             4    7     1       0.8962981507E-03       4    7    1         0.4697024091E-01      0.1041864903E+00
          0                 4           2             4    7     1       0.2751414980E-03       4    7    1         0.1443689476E-01      0.3129720426E-01
          0                 5           1             4    7     1       0.8441236732E-04       4    7    1         0.4430651137E-02      0.9483980368E-02

    ------------------------------------------------
       NWT REQUIRED            5 OUTER ITERATIONS 
       AND A TOTAL OF          9 INNER ITERATIONS.
    ------------------------------------------------

 NO OUTPUT CONTROL FOR STRESS PERIOD   15   TIME STEP    6
 
 SOLVING FOR HEAD 
                                                   Max.-Head-Change                         Max.-Flux-Residual
  Residual-Control   Outer-Iter.   Inner-Iter.     Column Row Layer    Maximum-Head-Change  Column Row Layer    Maximum-Flux-Residual          L2-NORM 
          0                 1           2             3    7     1       0.1846665344E-01       4    5    1         0.5861863040E+00      0.2464979834E+01
          0                 2           2             4    7     1       0.2906677878E-02       4    7    1         0.1528354523E+00      0.4072587908E+00
          0                 3           2             4    7     1       0.8928054248E-03       4    7    1         0.4678824080E-01      0.1037512303E+00
          0                 4           2             4    7     1       0.2740622348E-03       4    7    1         0.1438053636E-01      0.3116583395E-01
          0                 5           1             4    7     1       0.8407927469E-04       4    7    1         0.4413244234E-02      0.9444193542E-02

    ------------------------------------------------
       NWT REQUIRED            5 OUTER ITERATIONS 
       AND A TOTAL OF          9 INNER ITERATIONS.
    ------------------------------------------------

 NO OUTPUT CONTROL FOR STRESS PERIOD   15   TIME STEP    7
 
 SOLVING FOR HEAD 
                                                   Max.-Head-Change                         Max.-Flux-Residual
  Residual-Control   Outer-Iter.   Inner-Iter.     Column Row Layer    Maximum-Head-Change  Column Row Layer    Maximum-Flux-Residual          L2-NORM 
          0                 1           2             3    7     1       0.1836365133E-01       4    5    1         0.5849396972E+00      0.2456903090E+01
          0                 2           2             4    7     1       0.2895261496E-02       4    7    1         0.1522371138E+00      0.4056941082E+00
          0                 3           2             4    7     1       0.8892791732E-03       4    7    1         0.4660425600E-01      0.1033204498E+00
          0                 4           2             4    7     1       0.2729743071E-03       4    7    1         0.1432366055E-01      0.3103579445E-01
          0                 5           1             4    7     1       0.8374397833E-04       4    7    1         0.4395704084E-02      0.9404804414E-02

    ------------------------------------------------
       NWT REQUIRED            5 OUTER ITERATIONS 
       AND A TOTAL OF          9 INNER ITERATIONS.
    ------------------------------------------------

 NO OUTPUT CONTROL FOR STRESS PERIOD   15   TIME STEP    8
 
 SOLVING FOR HEAD 
                                                   Max.-Head-Change                         Max.-Flux-Residual
  Residual-Control   Outer-Iter.   Inner-Iter.     Column Row Layer    Maximum-Head-Change  Column Row Layer    Maximum-Flux-Residual          L2-NORM 
          0                 1           2             3    7     1       0.1826156814E-01       4    5    1         0.5836460826E+00      0.2448909261E+01
          0                 2           2             4    7     1       0.2883893304E-02       4    7    1         0.1516410922E+00      0.4041469385E+00
          0                 3           2             4    7     1       0.8857694267E-03       4    7    1         0.4642106903E-01      0.1028946367E+00
          0                 4           2             4    7     1       0.2718919300E-03       4    7    1         0.1426705725E-01      0.3090723924E-01
          0                 5           1             4    7     1       0.8341052253E-04       4    7    1         0.4378255218E-02      0.9365860606E-02

    ------------------------------------------------
       NWT REQUIRED            5 OUTER ITERATIONS 
       AND A TOTAL OF          9 INNER ITERATIONS.
    ------------------------------------------------

 NO OUTPUT CONTROL FOR STRESS PERIOD   15   TIME STEP    9
 
 SOLVING FOR HEAD 
                                                   Max.-Head-Change                         Max.-Flux-Residual
  Residual-Control   Outer-Iter.   Inner-Iter.     Column Row Layer    Maximum-Head-Change  Column Row Layer    Maximum-Flux-Residual          L2-NORM 
          0                 1           2             3    7     1       0.1816062512E-01       4    5    1         0.5822956022E+00      0.2440992814E+01
          0                 2           2             4    7     1       0.2872339849E-02       4    7    1         0.1510347512E+00      0.4026106453E+00
          0                 3           2             4    7     1       0.8822074345E-03       4    7    1         0.4623495956E-01      0.1024712215E+00
          0                 4           2             4    7     1       0.2707948334E-03       4    7    1         0.1420963063E-01      0.3077936836E-01
          0                 5           1             4    7     1       0.8307292489E-04       4    7    1         0.4360574427E-02      0.9327116277E-02

    ------------------------------------------------
       NWT REQUIRED            5 OUTER ITERATIONS 
       AND A TOTAL OF          9 INNER ITERATIONS.
    ------------------------------------------------

 NO OUTPUT CONTROL FOR STRESS PERIOD   15   TIME STEP   10
 
 SOLVING FOR HEAD 
                                                   Max.-Head-Change                         Max.-Flux-Residual
  Residual-Control   Outer-Iter.   Inner-Iter.     Column Row Layer    Maximum-Head-Change  Column Row Layer    Maximum-Flux-Residual          L2-NORM 
          0                 1           2             3    7     1       0.1806054661E-01       4    5    1         0.5809073455E+00      0.2433148368E+01
          0                 2           2             4    7     1       0.2860788273E-02       4    7    1         0.1504281423E+00      0.4010886613E+00
          0                 3           2             4    7     1       0.8786488233E-03       4    7    1         0.4604891765E-01      0.1020517670E+00
          0                 4           2             4    7     1       0.2696995562E-03       4    7    1         0.1415226935E-01      0.3065268387E-01
          0                 5           1             4    7     1       0.8273610285E-04       4    7    1         0.4342925939E-02      0.9288728899E-02

    ------------------------------------------------
       NWT REQUIRED            5 OUTER ITERATIONS 
       AND A TOTAL OF          9 INNER ITERATIONS.
    ------------------------------------------------

 NO OUTPUT CONTROL FOR STRESS PERIOD   15   TIME STEP   11
 
 SOLVING FOR HEAD 
                                                   Max.-Head-Change                         Max.-Flux-Residual
  Residual-Control   Outer-Iter.   Inner-Iter.     Column Row Layer    Maximum-Head-Change  Column Row Layer    Maximum-Flux-Residual          L2-NORM 
          0                 1           2             3    7     1       0.1796155866E-01       4    5    1         0.5794857725E+00      0.2425383433E+01
          0                 2           2             4    7     1       0.2849251643E-02       4    7    1         0.1498219782E+00      0.3995841352E+00
          0                 3           2             4    7     1       0.8750974624E-03       4    7    1         0.4586315120E-01      0.1016373563E+00
          0                 4           2             4    7     1       0.2686072500E-03       4    7    1         0.1409503519E-01      0.3052751235E-01
          0                 5           1             4    7     1       0.8240040106E-04       4    7    1         0.4325328178E-02      0.9250796446E-02

    ------------------------------------------------
       NWT REQUIRED            5 OUTER ITERATIONS 
       AND A TOTAL OF          9 INNER ITERATIONS.
    ------------------------------------------------

 NO OUTPUT CONTROL FOR STRESS PERIOD   15   TIME STEP   12
 
 SOLVING FOR HEAD 
                                                   Max.-Head-Change                         Max.-Flux-Residual
  Residual-Control   Outer-Iter.   Inner-Iter.     Column Row Layer    Maximum-Head-Change  Column Row Layer    Maximum-Flux-Residual          L2-NORM 
          0                 1           2             3    7     1       0.1786339577E-01       4    5    1         0.5780343637E+00      0.2417698381E+01
          0                 2           2             4    7     1       0.2837729440E-02       4    7    1         0.1492165070E+00      0.3980896706E+00
          0                 3           2             4    7     1       0.8715511599E-03       4    7    1         0.4567762409E-01      0.1012250058E+00
          0                 4           2             4    7     1       0.2675166788E-03       4    7    1         0.1403788501E-01      0.3040293754E-01
          0                 5           1             4    7     1       0.8206528453E-04       4    7    1         0.4307759050E-02      0.9213041740E-02

    ------------------------------------------------
       NWT REQUIRED            5 OUTER ITERATIONS 
       AND A TOTAL OF          9 INNER ITERATIONS.
    ------------------------------------------------

 NO OUTPUT CONTROL FOR STRESS PERIOD   15   TIME STEP   13
 
 SOLVING FOR HEAD 
                                                   Max.-Head-Change                         Max.-Flux-Residual
  Residual-Control   Outer-Iter.   Inner-Iter.     Column Row Layer    Maximum-Head-Change  Column Row Layer    Maximum-Flux-Residual          L2-NORM 
          0                 1           2             3    7     1       0.1776628255E-01       4    5    1         0.5765562065E+00      0.2410079101E+01
          0                 2           2             4    7     1       0.2826079239E-02       4    7    1         0.1486036833E+00      0.3966092091E+00
          0                 3           2             4    7     1       0.8679704239E-03       4    7    1         0.4549010028E-01      0.1008165891E+00
          0                 4           2             4    7     1       0.2664169147E-03       4    7    1         0.1398019926E-01      0.3027953080E-01
          0                 5           1             4    7     1       0.8172773616E-04       4    7    1         0.4290047250E-02      0.9175635373E-02

    ------------------------------------------------
       NWT REQUIRED            5 OUTER ITERATIONS 
       AND A TOTAL OF          9 INNER ITERATIONS.
    ------------------------------------------------

 NO OUTPUT CONTROL FOR STRESS PERIOD   15   TIME STEP   14
 
 SOLVING FOR HEAD 
                                                   Max.-Head-Change                         Max.-Flux-Residual
  Residual-Control   Outer-Iter.   Inner-Iter.     Column Row Layer    Maximum-Head-Change  Column Row Layer    Maximum-Flux-Residual          L2-NORM 
          0                 1           2             3    7     1       0.1766994938E-01       4    5    1         0.5750396180E+00      0.2402535463E+01
          0                 2           2             4    7     1       0.2814550424E-02       4    7    1         0.1479973481E+00      0.3951395024E+00
          0                 3           2             4    7     1       0.8644261883E-03       4    7    1         0.4530451986E-01      0.1004106771E+00
          0                 4           2             4    7     1       0.2653281278E-03       4    7    1         0.1392309833E-01      0.3015687128E-01
          0                 5           1             4    7     1       0.8139348976E-04       4    7    1         0.4272511301E-02      0.9138455549E-02

    ------------------------------------------------
       NWT REQUIRED            5 OUTER ITERATIONS 
       AND A TOTAL OF          9 INNER ITERATIONS.
    ------------------------------------------------

 NO OUTPUT CONTROL FOR STRESS PERIOD   15   TIME STEP   15
 
 SOLVING FOR HEAD 
                                                   Max.-Head-Change                         Max.-Flux-Residual
  Residual-Control   Outer-Iter.   Inner-Iter.     Column Row Layer    Maximum-Head-Change  Column Row Layer    Maximum-Flux-Residual          L2-NORM 
          0                 1           2             3    7     1       0.1757462680E-01       4    5    1         0.5735028818E+00      0.2395060978E+01
          0                 2           2             4    7     1       0.2802986135E-02       4    7    1         0.1473888369E+00      0.3936825663E+00
          0                 3           2             4    7     1       0.8608735533E-03       4    7    1         0.4511840038E-01      0.1000081553E+00
          0                 4           2             4    7     1       0.2642374681E-03       4    7    1         0.1386587189E-01      0.3003521676E-01
          0                 5           1             4    7     1       0.8105886920E-04       4    7    1         0.4254947971E-02      0.9101576227E-02

    ------------------------------------------------
       NWT REQUIRED            5 OUTER ITERATIONS 
       AND A TOTAL OF          9 INNER ITERATIONS.
    ------------------------------------------------

 NO OUTPUT CONTROL FOR STRESS PERIOD   15   TIME STEP   16
 
 SOLVING FOR HEAD 
                                                   Max.-Head-Change                         Max.-Flux-Residual
  Residual-Control   Outer-Iter.   Inner-Iter.     Column Row Layer    Maximum-Head-Change  Column Row Layer    Maximum-Flux-Residual          L2-NORM 
          0                 1           2             3    7     1       0.1748029394E-01       4    5    1         0.5719484115E+00      0.2387661918E+01
          0                 2           2             4    7     1       0.2791402164E-02       4    7    1         0.1467789204E+00      0.3922396081E+00
          0                 3           2             4    7     1       0.8573177616E-03       4    7    1         0.4493200201E-01      0.9960936892E-01
          0                 4           2             4    7     1       0.2631466481E-03       4    7    1         0.1380860586E-01      0.2991468026E-01
          0                 5           1             4    7     1       0.8072442497E-04       4    7    1         0.4237385160E-02      0.9065033483E-02

    ------------------------------------------------
       NWT REQUIRED            5 OUTER ITERATIONS 
       AND A TOTAL OF          9 INNER ITERATIONS.
    ------------------------------------------------

 NO OUTPUT CONTROL FOR STRESS PERIOD   15   TIME STEP   17
 
 SOLVING FOR HEAD 
                                                   Max.-Head-Change                         Max.-Flux-Residual
  Residual-Control   Outer-Iter.   Inner-Iter.     Column Row Layer    Maximum-Head-Change  Column Row Layer    Maximum-Flux-Residual          L2-NORM 
          0                 1           2             3    7     1       0.1738668805E-01       4    5    1         0.5703786471E+00      0.2380329231E+01
          0                 2           2             4    7     1       0.2779959151E-02       4    7    1         0.1461765961E+00      0.3908087940E+00
          0                 3           2             4    7     1       0.8538039403E-03       4    7    1         0.4474785443E-01      0.9921382826E-01
          0                 4           2             4    7     1       0.2620683453E-03       4    7    1         0.1375201069E-01      0.2979511702E-01
          0                 5           1             4    7     1       0.8039371989E-04       4    7    1         0.4220022483E-02      0.9028784826E-02

    ------------------------------------------------
       NWT REQUIRED            5 OUTER ITERATIONS 
       AND A TOTAL OF          9 INNER ITERATIONS.
    ------------------------------------------------

 NO OUTPUT CONTROL FOR STRESS PERIOD   15   TIME STEP   18
 
 SOLVING FOR HEAD 
                                                   Max.-Head-Change                         Max.-Flux-Residual
  Residual-Control   Outer-Iter.   Inner-Iter.     Column Row Layer    Maximum-Head-Change  Column Row Layer    Maximum-Flux-Residual          L2-NORM 
          0                 1           2             3    7     1       0.1729403660E-01       4    5    1         0.5687956386E+00      0.2373067497E+01
          0                 2           2             4    7     1       0.2768415748E-02       4    7    1         0.1455686574E+00      0.3893858442E+00
          0                 3           2             4    7     1       0.8502620245E-03       4    7    1         0.4456212571E-01      0.9881967419E-01
          0                 4           2             4    7     1       0.2609821911E-03       4    7    1         0.1369497378E-01      0.2967594286E-01
          0                 5           1             4    7     1       0.8006082334E-04       4    7    1         0.4202536380E-02      0.8992650265E-02

    ------------------------------------------------
       NWT REQUIRED            5 OUTER ITERATIONS 
       AND A TOTAL OF          9 INNER ITERATIONS.
    ------------------------------------------------

 NO OUTPUT CONTROL FOR STRESS PERIOD   15   TIME STEP   19
 
 SOLVING FOR HEAD 
                                                   Max.-Head-Change                         Max.-Flux-Residual
  Residual-Control   Outer-Iter.   Inner-Iter.     Column Row Layer    Maximum-Head-Change  Column Row Layer    Maximum-Flux-Residual          L2-NORM 
          0                 1           2             3    7     1       0.1720207857E-01       4    5    1         0.5671864764E+00      0.2365875712E+01
          0                 2           2             4    7     1       0.2756950858E-02       4    7    1         0.1449646855E+00      0.3879774294E+00
          0                 3           2             4    7     1       0.8467454167E-03       4    7    1         0.4437767706E-01      0.9842964513E-01
          0                 4           2             4    7     1       0.2599041335E-03       4    7    1         0.1363834906E-01      0.2955801360E-01
          0                 5           1             4    7     1       0.7973050244E-04       4    7    1         0.4185181944E-02      0.8956892804E-02

    ------------------------------------------------
       NWT REQUIRED            5 OUTER ITERATIONS 
       AND A TOTAL OF          9 INNER ITERATIONS.
    ------------------------------------------------

 NO OUTPUT CONTROL FOR STRESS PERIOD   15   TIME STEP   20
 
 SOLVING FOR HEAD 
                                                   Max.-Head-Change                         Max.-Flux-Residual
  Residual-Control   Outer-Iter.   Inner-Iter.     Column Row Layer    Maximum-Head-Change  Column Row Layer    Maximum-Flux-Residual          L2-NORM 
          0                 1           2             3    7     1       0.1711104609E-01       4    5    1         0.5655684764E+00      0.2358742157E+01
          0                 2           2             4    7     1       0.2745558639E-02       4    7    1         0.1443646179E+00      0.3865785959E+00
          0                 3           2             4    7     1       0.8432506334E-03       4    7    1         0.4419439022E-01      0.9804200325E-01
          0                 4           2             4    7     1       0.2588326450E-03       4    7    1         0.1358207404E-01      0.2944079712E-01
          0                 5           1             4    7     1       0.7940216166E-04       4    7    1         0.4167932771E-02      0.8921349812E-02

    ------------------------------------------------
       NWT REQUIRED            5 OUTER ITERATIONS 
       AND A TOTAL OF          9 INNER ITERATIONS.
    ------------------------------------------------

 NO OUTPUT CONTROL FOR STRESS PERIOD   15   TIME STEP   21
 
 SOLVING FOR HEAD 
                                                   Max.-Head-Change                         Max.-Flux-Residual
  Residual-Control   Outer-Iter.   Inner-Iter.     Column Row Layer    Maximum-Head-Change  Column Row Layer    Maximum-Flux-Residual          L2-NORM 
          0                 1           2             3    7     1       0.1702092569E-01       4    5    1         0.5639431294E+00      0.2351684051E+01
          0                 2           2             4    7     1       0.2734242728E-02       4    7    1         0.1437685231E+00      0.3851918887E+00
          0                 3           2             4    7     1       0.8397796458E-03       4    7    1         0.4401233599E-01      0.9765738815E-01
          0                 4           2             4    7     1       0.2577685568E-03       4    7    1         0.1352618368E-01      0.2932448250E-01
          0                 5           1             4    7     1       0.7907611766E-04       4    7    1         0.4150803140E-02      0.8886079137E-02

    ------------------------------------------------
       NWT REQUIRED            5 OUTER ITERATIONS 
       AND A TOTAL OF          9 INNER ITERATIONS.
    ------------------------------------------------

 NO OUTPUT CONTROL FOR STRESS PERIOD   15   TIME STEP   22
 
 SOLVING FOR HEAD 
                                                   Max.-Head-Change                         Max.-Flux-Residual
  Residual-Control   Outer-Iter.   Inner-Iter.     Column Row Layer    Maximum-Head-Change  Column Row Layer    Maximum-Flux-Residual          L2-NORM 
          0                 1           2             3    7     1       0.1693145232E-01       4    5    1         0.5622972570E+00      0.2344684309E+01
          0                 2           2             4    7     1       0.2722926476E-02       4    7    1         0.1431721829E+00      0.3838167146E+00
          0                 3           2             4    7     1       0.8363103391E-03       4    7    1         0.4383029952E-01      0.9727594187E-01
          0                 4           2             4    7     1       0.2567054919E-03       4    7    1         0.1347032738E-01      0.2920911717E-01
          0                 5           1             4    7     1       0.7875053060E-04       4    7    1         0.4133691942E-02      0.8851094121E-02

    ------------------------------------------------
       NWT REQUIRED            5 OUTER ITERATIONS 
       AND A TOTAL OF          9 INNER ITERATIONS.
    ------------------------------------------------

 NO OUTPUT CONTROL FOR STRESS PERIOD   15   TIME STEP   23
 
 SOLVING FOR HEAD 
                                                   Max.-Head-Change                         Max.-Flux-Residual
  Residual-Control   Outer-Iter.   Inner-Iter.     Column Row Layer    Maximum-Head-Change  Column Row Layer    Maximum-Flux-Residual          L2-NORM 
          0                 1           2             3    7     1       0.1684286118E-01       4    5    1         0.5606626514E+00      0.2337746000E+01
          0                 2           2             4    7     1       0.2711613118E-02       4    7    1         0.1425759018E+00      0.3824481253E+00
          0                 3           2             4    7     1       0.8328427418E-03       4    7    1         0.4364831957E-01      0.9689563019E-01
          0                 4           2             4    7     1       0.2556431770E-03       4    7    1         0.1341450184E-01      0.2909407762E-01
          0                 5           1             4    7     1       0.7842523543E-04       4    7    1         0.4116593680E-02      0.8816207316E-02

    ------------------------------------------------
       NWT REQUIRED            5 OUTER ITERATIONS 
       AND A TOTAL OF          9 INNER ITERATIONS.
    ------------------------------------------------

 NO OUTPUT CONTROL FOR STRESS PERIOD   15   TIME STEP   24
 
 SOLVING FOR HEAD 
                                                   Max.-Head-Change                         Max.-Flux-Residual
  Residual-Control   Outer-Iter.   Inner-Iter.     Column Row Layer    Maximum-Head-Change  Column Row Layer    Maximum-Flux-Residual          L2-NORM 
          0                 1           2             3    7     1       0.1675513549E-01       4    5    1         0.5590098599E+00      0.2330877147E+01
          0                 2           2             4    7     1       0.2700386197E-02       4    7    1         0.1419842440E+00      0.3811089117E+00
          0                 3           2             4    7     1       0.8294012248E-03       4    7    1         0.4346772353E-01      0.9651834588E-01
          0                 4           2             4    7     1       0.2545887388E-03       4    7    1         0.1335909460E-01      0.2897984494E-01
          0                 5           1             4    7     1       0.7810232256E-04       4    7    1         0.4099621793E-02      0.8781563309E-02

    ------------------------------------------------
       NWT REQUIRED            5 OUTER ITERATIONS 
       AND A TOTAL OF          9 INNER ITERATIONS.
    ------------------------------------------------

 NO OUTPUT CONTROL FOR STRESS PERIOD   15   TIME STEP   25
 
 SOLVING FOR HEAD 
                                                   Max.-Head-Change                         Max.-Flux-Residual
  Residual-Control   Outer-Iter.   Inner-Iter.     Column Row Layer    Maximum-Head-Change  Column Row Layer    Maximum-Flux-Residual          L2-NORM 
          0                 1           2             3    7     1       0.1666782456E-01       4    5    1         0.5573556613E+00      0.2324055527E+01
          0                 2           2             4    7     1       0.2689249848E-02       4    7    1         0.1413972417E+00      0.3797459569E+00
          0                 3           2             4    7     1       0.8259882085E-03       4    7    1         0.4328859573E-01      0.9614460212E-01
          0                 4           2             4    7     1       0.2535432399E-03       4    7    1         0.1330414900E-01      0.2886687536E-01
          0                 5           1             4    7     1       0.7778220544E-04       4    7    1         0.4082794588E-02      0.8747307285E-02

    ------------------------------------------------
       NWT REQUIRED            5 OUTER ITERATIONS 
       AND A TOTAL OF          9 INNER ITERATIONS.
    ------------------------------------------------

 NO OUTPUT CONTROL FOR STRESS PERIOD   15   TIME STEP   26
 
 SOLVING FOR HEAD 
                                                   Max.-Head-Change                         Max.-Flux-Residual
  Residual-Control   Outer-Iter.   Inner-Iter.     Column Row Layer    Maximum-Head-Change  Column Row Layer    Maximum-Flux-Residual          L2-NORM 
          0                 1           2             3    7     1       0.1658122678E-01       4    5    1         0.5556859940E+00      0.2317162899E+01
          0                 2           2             4    7     1       0.2678034681E-02       4    7    1         0.1408103754E+00      0.3784629189E+00
          0                 3           2             4    7     1       0.8225518033E-03       4    7    1         0.4310790328E-01      0.9577149288E-01
          0                 4           2             4    7     1       0.2524907989E-03       4    7    1         0.1324884270E-01      0.2875373865E-01
          0                 5           1             4    7     1       0.7746002615E-04       4    7    1         0.4065856445E-02      0.8712983567E-02

    ------------------------------------------------
       NWT REQUIRED            5 OUTER ITERATIONS 
       AND A TOTAL OF          9 INNER ITERATIONS.
    ------------------------------------------------

 NO OUTPUT CONTROL FOR STRESS PERIOD   15   TIME STEP   27
 
 SOLVING FOR HEAD 
                                                   Max.-Head-Change                         Max.-Flux-Residual
  Residual-Control   Outer-Iter.   Inner-Iter.     Column Row Layer    Maximum-Head-Change  Column Row Layer    Maximum-Flux-Residual          L2-NORM 
          0                 1           2             3    7     1       0.1645136743E-01       4    5    1         0.5540326402E+00      0.2310259595E+01
          0                 2           2             4    7     1       0.2666987062E-02       4    7    1         0.1402225567E+00      0.3770722262E+00
          0                 3           2             4    7     1       0.8191661902E-03       4    7    1         0.4293058818E-01      0.9540004200E-01
          0                 4           2             4    7     1       0.2514537482E-03       4    7    1         0.1319432341E-01      0.2864160025E-01
          0                 5           1             4    7     1       0.7714250868E-04       4    7    1         0.4049165594E-02      0.8678977588E-02

    ------------------------------------------------
       NWT REQUIRED            5 OUTER ITERATIONS 
       AND A TOTAL OF          9 INNER ITERATIONS.
    ------------------------------------------------

 NO OUTPUT CONTROL FOR STRESS PERIOD   15   TIME STEP   28
 
 SOLVING FOR HEAD 
                                                   Max.-Head-Change                         Max.-Flux-Residual
  Residual-Control   Outer-Iter.   Inner-Iter.     Column Row Layer    Maximum-Head-Change  Column Row Layer    Maximum-Flux-Residual          L2-NORM 
          0                 1           2             3    7     1       0.1634017836E-01       6    7    1         0.5633224102E+00      0.2383024332E+01
          0                 2           2             4    7     1       0.2655931911E-02       4    7    1         0.1396373027E+00      0.3806413752E+00
          0                 3           2             4    7     1       0.8157922758E-03       4    7    1         0.4275300071E-01      0.9515619549E-01
          0                 4           2             4    7     1       0.2504243827E-03       4    7    1         0.1314006116E-01      0.2854235482E-01
          0                 5           1             4    7     1       0.7682854504E-04       4    7    1         0.4032614347E-02      0.8648663057E-02

    ------------------------------------------------
       NWT REQUIRED            5 OUTER ITERATIONS 
       AND A TOTAL OF          9 INNER ITERATIONS.
    ------------------------------------------------

 NO OUTPUT CONTROL FOR STRESS PERIOD   15   TIME STEP   29
 
 SOLVING FOR HEAD 
                                                   Max.-Head-Change                         Max.-Flux-Residual
  Residual-Control   Outer-Iter.   Inner-Iter.     Column Row Layer    Maximum-Head-Change  Column Row Layer    Maximum-Flux-Residual          L2-NORM 
          0                 1           2             4   13     1       0.2274276983E-01       4   13    1         0.1312321842E+01      0.3341984809E+01
          0                 2           2             4    7     1       0.2645169325E-02       4    7    1         0.1390634591E+00      0.4431799484E+00
          0                 3           2             4    7     1       0.8125379844E-03       4    7    1         0.4258051971E-01      0.9615756219E-01
          0                 4           2             4    7     1       0.2494404674E-03       4    7    1         0.1308784203E-01      0.2847984434E-01
          0                 5           1             4    7     1       0.7653108372E-04       4    7    1         0.4016829148E-02      0.8627607663E-02

    ------------------------------------------------
       NWT REQUIRED            5 OUTER ITERATIONS 
       AND A TOTAL OF          9 INNER ITERATIONS.
    ------------------------------------------------

 NO OUTPUT CONTROL FOR STRESS PERIOD   15   TIME STEP   30



 STREAM LISTING     PERIOD     15   STEP       30

 LAYER ROW COL. STREAM  RCH.  FLOW INTO     FLOW TO   FLOW OUT OF   OVRLND.     DIRECT     STREAM       STREAM     STREAM     STREAM   STREAMBED  STREAMBED
                SEG.NO.  NO.  STRM. RCH.    AQUIFER    STRM. RCH.    RUNOFF     PRECIP       ET          HEAD       DEPTH      WIDTH   CONDCTNC.   GRADIENT

   1    1    1     1     1    7.3501E+01  4.1745E-01   7.3084E+01  0.000E+00  0.000E+00  0.000E+00  1.09473E+03  1.681E+00  1.982E+01  8.917E-02  1.560E+00
   1    2    2     1     2    7.3084E+01  6.4666E-01   7.2437E+01  0.000E+00  0.000E+00  0.000E+00  1.08973E+03  1.675E+00  1.976E+01  1.383E-01  1.558E+00
   1    3    3     1     3    7.2437E+01  5.5167E-01   7.1885E+01  0.000E+00  0.000E+00  0.000E+00  1.08409E+03  1.669E+00  1.969E+01  1.182E-01  1.556E+00
   1    3    4     1     4    7.1885E+01  5.0815E-01   7.1377E+01  0.000E+00  0.000E+00  0.000E+00  1.07907E+03  1.663E+00  1.963E+01  1.090E-01  1.554E+00
   1    4    5     2     1    6.9377E+01  4.0746E-01   6.8970E+01  0.000E+00  0.000E+00  0.000E+00  1.07416E+03  2.224E+00  1.200E+01  7.800E-02  1.741E+00
   1    5    6     2     2    6.8970E+01  3.1301E-01   6.8657E+01  0.000E+00  0.000E+00  0.000E+00  1.06873E+03  2.217E+00  1.200E+01  6.000E-02  1.739E+00
   1    6    6     2     3    6.8657E+01  3.1265E-01   6.8344E+01  0.000E+00  0.000E+00  0.000E+00  1.06400E+03  2.211E+00  1.200E+01  6.000E-02  1.737E+00
   1    7    6     2     4    6.8344E+01  3.1229E-01   6.8032E+01  0.000E+00  0.000E+00  0.000E+00  1.05928E+03  2.205E+00  1.200E+01  6.000E-02  1.735E+00
   1    8    6     2     5    6.8032E+01  3.1192E-01   6.7720E+01  0.000E+00  0.000E+00  0.000E+00  1.05456E+03  2.199E+00  1.200E+01  6.000E-02  1.733E+00
   1    3    5     3     1    2.0000E+00  2.8252E-01   1.7175E+00  0.000E+00  0.000E+00  0.000E+00  1.07555E+03  1.909E+00  9.636E+00  7.227E-02  1.955E+00
   1    3    6     3     2    1.7175E+00  2.4905E-01   1.4684E+00  0.000E+00  0.000E+00  0.000E+00  1.07264E+03  1.727E+00  8.909E+00  6.682E-02  1.864E+00
   1    3    7     3     3    1.4684E+00  1.9718E-01   1.2712E+00  0.000E+00  0.000E+00  0.000E+00  1.06987E+03  1.555E+00  8.218E+00  5.547E-02  1.777E+00
   1    4    8     3     4    1.2712E+00  2.2567E-01   1.0456E+00  0.000E+00  0.000E+00  0.000E+00  1.06682E+03  1.364E+00  7.455E+00  6.709E-02  1.682E+00
   1    5    8     3     5    1.0456E+00  1.5790E-01   8.8768E-01  0.000E+00  0.000E+00  0.000E+00  1.06362E+03  1.164E+00  6.655E+00  4.991E-02  1.582E+00
   1    6    8     3     6    8.8768E-01  5.5980E-02   8.3170E-01  0.000E+00  0.000E+00  0.000E+00  1.06158E+03  1.036E+00  6.145E+00  1.844E-02  1.518E+00
   1    5   10     4     1    1.0000E+01  9.0919E-02   9.9091E+00  0.000E+00  0.000E+00  0.000E+00  1.07836E+03  6.368E-01  1.000E+01  2.500E-02  1.212E+00
   1    5    9     4     2    9.9091E+00  1.8158E-01   9.7275E+00  0.000E+00  0.000E+00  0.000E+00  1.07154E+03  6.315E-01  1.000E+01  5.000E-02  1.211E+00
   1    6    8     4     3    9.7275E+00  1.2689E-01   9.6006E+00  0.000E+00  0.000E+00  0.000E+00  1.06381E+03  6.256E-01  1.000E+01  3.500E-02  1.209E+00
   1    6    8     5     1    1.0432E+01  2.2686E-01   1.0205E+01  0.000E+00  0.000E+00  0.000E+00  1.05868E+03  6.790E-01  1.542E+01  6.166E-02  1.226E+00
   1    7    7     5     2    1.0205E+01  2.7894E-01   9.9265E+00  0.000E+00  0.000E+00  0.000E+00  1.05417E+03  6.732E-01  1.519E+01  7.594E-02  1.224E+00
   1    8    7     5     3    9.9265E+00  1.9221E-01   9.7343E+00  0.000E+00  0.000E+00  0.000E+00  1.04992E+03  6.676E-01  1.497E+01  5.241E-02  1.223E+00
   1    8    6     5     4    9.7343E+00  1.3577E-01   9.5985E+00  0.000E+00  0.000E+00  0.000E+00  1.04691E+03  6.637E-01  1.482E+01  3.706E-02  1.221E+00
   1    9    6     6     1    7.7318E+01  3.2406E-01   7.6994E+01  0.000E+00  0.000E+00  0.000E+00  1.04513E+03  2.401E+00  1.200E+01  6.000E-02  1.800E+00
   1   10    7     6     2    7.6994E+01  3.2370E-01   7.6671E+01  0.000E+00  0.000E+00  0.000E+00  1.04058E+03  2.395E+00  1.200E+01  6.000E-02  1.798E+00
   1   11    7     6     3    7.6671E+01  3.2333E-01   7.6347E+01  0.000E+00  0.000E+00  0.000E+00  1.03603E+03  2.389E+00  1.200E+01  6.000E-02  1.796E+00
   1   12    7     6     4    7.6347E+01  3.2297E-01   7.6024E+01  0.000E+00  0.000E+00  0.000E+00  1.03147E+03  2.383E+00  1.200E+01  6.000E-02  1.794E+00
   1   13    7     6     5    7.6024E+01  3.3014E-02   7.5991E+01  0.000E+00  0.000E+00  0.000E+00  1.02829E+03  2.379E+00  1.200E+01  2.400E-02  4.585E-01
   1   14    9     7     1    1.5000E+02  1.3391E+00   1.4866E+02  0.000E+00  0.000E+00  0.000E+00  1.03987E+03  2.288E+00  5.529E+01  5.593E-01  7.981E-01
   1   13    8     7     2    1.4866E+02  1.8664E+00   1.4679E+02  0.000E+00  0.000E+00  0.000E+00  1.03478E+03  2.279E+00  5.526E+01  6.148E-01  1.012E+00
   1   13    7     7     3    1.4679E+02  1.5504E+00   1.4524E+02  0.000E+00  0.000E+00  0.000E+00  1.02969E+03  2.270E+00  5.522E+01  5.584E-01  9.255E-01
   1   13    6     8     1    2.2124E+02  1.2600E+00   2.1998E+02  0.000E+00  0.000E+00  0.000E+00  1.02513E+03  3.255E+00  4.720E+01  4.810E-01  8.732E-01
   1   13    5     8     2    2.1998E+02  4.3440E-01   2.1954E+02  0.000E+00  0.000E+00  0.000E+00  1.01888E+03  3.251E+00  4.713E+01  4.803E-01  3.015E-01
   1   13    4     8     3    2.1954E+02 -9.6162E-01   2.2050E+02  0.000E+00  0.000E+00  0.000E+00  1.01263E+03  3.252E+00  4.715E+01  4.805E+00 -6.671E-02
   1   13    3     8     4    2.2050E+02 -2.4692E+00   2.2297E+02  0.000E+00  0.000E+00  0.000E+00  1.00639E+03  3.261E+00  4.729E+01  4.819E+00 -1.708E-01
   1   13    2     8     5    2.2297E+02 -1.4270E+00   2.2440E+02  0.000E+00  0.000E+00  0.000E+00  1.00015E+03  3.272E+00  4.745E+01  4.835E+00 -9.838E-02
   1   13    1     8     6    2.2440E+02 -1.3301E+00   2.2573E+02  0.000E+00  0.000E+00  0.000E+00  9.95155E+02  3.280E+00  4.756E+01  2.908E+00 -1.525E-01
   1    8    6     9     1    0.0000E+00  0.0000E+00   0.0000E+00  0.000E+00  0.000E+00  0.000E+00  1.07875E+03  0.000E+00  4.000E+00  0.000E+00  1.000E+00
   1    8    5     9     2    0.0000E+00  0.0000E+00   0.0000E+00  0.000E+00  0.000E+00  0.000E+00  1.07825E+03  0.000E+00  4.000E+00  0.000E+00  1.000E+00





UNSATURATED ZONE PACKAGE VOLUMETRIC BUDGET FOR  TIME STEP    30 STRESS PERIOD   15
  ------------------------------------------------------------------------------



     CUMULATIVE VOLUMES      L**3       RATES FOR THIS TIME STEP      L**3/T
     ------------------                 ------------------------

           IN:                                      IN:
           ---                                      ---
        INFILTRATION =  2630023217.0219          INFILTRATION =           0.8475

          OUT:                                     OUT:
          ----                                     ----
              UZF ET =   435979841.2779                UZF ET =           0.7500
        UZF RECHARGE =  1833257448.6270          UZF RECHARGE =          11.0251

            IN - OUT =   360785927.1170              IN - OUT =         -10.9276

          STORAGE:                                 STORAGE:
          --------                                 --------
      STORAGE CHANGE =   361265987.8867        STORAGE CHANGE =         -10.9276

 PERCENT DISCREPANCY IS DIFFERENCE BETWEEN IN-OUT MINUS CHANGE IN STORAGE
 DIVIDED BY THE AVERAGE OF IN AND OUT TIMES 100

 PERCENT DISCREPANCY =          -0.00     PERCENT DISCREPANCY =           0.00






1
  VOLUMETRIC BUDGET FOR AGRICULTURAL FIELDS AT  END OF TIME STEP   30, STRESS PERIOD  15
  ------------------------------------------------------------------------------

     CUMULATIVE VOLUMES      L**3       RATES FOR THIS TIME STEP      L**3/T
     ------------------                 ------------------------

           IN:                                      IN:
           ---                                      ---
               AG WELLS  =  2251250432.0000                 AG WELLS  =           0.0000
      DIVERSION SEGMENTS =   347499584.0000        DIVERSION SEGMENTS =           0.0000
       IRRIGATION PONDS  =           0.0000         IRRIGATION PONDS  =           0.0000
           GW IRRIGATION =           0.0000             GW IRRIGATION =           0.0000
           SW IRRIGATION =           0.0000             SW IRRIGATION =           0.0000
        SYSTEM LOSSES GW =           0.0000          SYSTEM LOSSES GW =           0.0000
        SYSTEM LOSSES SW =           0.0000          SYSTEM LOSSES SW =           0.0000

                TOTAL IN =  2598749952.0000                  TOTAL IN =           0.0000

          OUT:                                     OUT:
          ----                                     ----
               AG WELLS  =           0.0000                 AG WELLS  =           0.0000
      DIVERSION SEGMENTS =           0.0000        DIVERSION SEGMENTS =           0.0000
       IRRIGATION PONDS  =           0.0000         IRRIGATION PONDS  =           0.0000
           GW IRRIGATION =  2251250432.0000             GW IRRIGATION =           0.0000
           SW IRRIGATION =   347506400.0000             SW IRRIGATION =           0.0000
        SYSTEM LOSSES GW =           0.0000          SYSTEM LOSSES GW =           0.0000
        SYSTEM LOSSES SW =           0.0000          SYSTEM LOSSES SW =           0.0000

               TOTAL OUT =  2598756864.0000                 TOTAL OUT =           0.0000

                IN - OUT =       -6912.0000                  IN - OUT =           0.0000

     PERCENT DISCREPANCY =          -0.00         PERCENT DISCREPANCY =           0.00



1
  VOLUMETRIC BUDGET FOR ENTIRE MODEL AT END OF TIME STEP   30, STRESS PERIOD  15
  ------------------------------------------------------------------------------

     CUMULATIVE VOLUMES      L**3       RATES FOR THIS TIME STEP      L**3/T
     ------------------                 ------------------------

           IN:                                      IN:
           ---                                      ---
             STORAGE     =  2458786816.0000               STORAGE     =           2.2322
       CONSTANT HEAD     =           0.0000         CONSTANT HEAD     =           0.0000
     HEAD DEP BOUNDS     =    10546914.0000       HEAD DEP BOUNDS     =           0.2860
      STREAM LEAKAGE     =   441690976.0000        STREAM LEAKAGE     =          13.9602
        UZF RECHARGE     =  1833257088.0000          UZF RECHARGE     =          11.0251
               GW ET     =           0.0000                 GW ET     =           0.0000
     SURFACE LEAKAGE     =           0.0000       SURFACE LEAKAGE     =           0.0000
           AG WELLS      =           0.0000             AG WELLS      =           0.0000

                TOTAL IN =  4744281600.0000                  TOTAL IN =          27.5034

          OUT:                                     OUT:
          ----                                     ----
             STORAGE     =  2089090944.0000               STORAGE     =          21.0198
       CONSTANT HEAD     =           0.0000         CONSTANT HEAD     =           0.0000
     HEAD DEP BOUNDS     =    10722040.0000       HEAD DEP BOUNDS     =           0.2893
      STREAM LEAKAGE     =   391950272.0000        STREAM LEAKAGE     =           6.1879
        UZF RECHARGE     =           0.0000          UZF RECHARGE     =           0.0000
               GW ET     =     1207612.8750                 GW ET     =           0.0000
     SURFACE LEAKAGE     =           0.0000       SURFACE LEAKAGE     =           0.0000
           AG WELLS      =  2251250432.0000             AG WELLS      =           0.0000

               TOTAL OUT =  4744221184.0000                 TOTAL OUT =          27.4970

                IN - OUT =       60416.0000                  IN - OUT =       6.4068E-03

     PERCENT DISCREPANCY =           0.00         PERCENT DISCREPANCY =           0.02






         TIME SUMMARY AT END OF TIME STEP   30 IN STRESS PERIOD   15
                    SECONDS     MINUTES      HOURS       DAYS        YEARS
                    -----------------------------------------------------------
   TIME STEP LENGTH  87667.      1461.1      24.352      1.0147     2.77799E-03
 STRESS PERIOD TIME 2.63000E+06  43833.      730.56      30.440     8.33397E-02
         TOTAL TIME 3.69063E+07 6.15106E+05  10252.      427.16      1.1695    
1
1
                            STRESS PERIOD NO.   16, LENGTH =   2630000.    
                            -----------------------------------------------

                              NUMBER OF TIME STEPS =    30

                               MULTIPLIER FOR DELT =     1.000

                            INITIAL TIME STEP SIZE =   87666.66    

 REUSING NON-PARAMETER GHB CELLS FROM LAST STRESS PERIOD

      2 GHB CELLS

 REUSING STREAM SEGMENT DATA FROM LAST STRESS PERIOD



            AREAL INFILTRATION RATE
 READING ON UNIT   19 WITH FORMAT: (FREE)              

            1           2           3           4           5           6           7           8           9          10
 ........................................................................................................................
   1   1.0000E-10  2.0000E-10   0.000       0.000       0.000       0.000       0.000       0.000       0.000       0.000    
   2   2.0000E-10  1.0000E-10  2.0000E-10   0.000       0.000      8.0000E-10  8.0000E-10  5.0000E-10   0.000       0.000    
   3    0.000      5.0000E-10  1.0000E-10  1.0000E-10  8.0000E-10  8.0000E-10  5.0000E-10  5.0000E-10   0.000       0.000    
   4   8.0000E-10  5.0000E-10  1.0000E-10  1.0000E-10  1.0000E-10  1.0000E-10  1.0000E-10  1.0000E-10  2.0000E-10   0.000    
   5   8.0000E-10  5.0000E-10  1.0000E-10  1.0000E-10  1.0000E-10  1.0000E-10  1.0000E-10  1.0000E-10  1.0000E-10  1.0000E-10
   6   8.0000E-10  5.0000E-10  5.0000E-10  2.0000E-10  2.0000E-10  1.0000E-10  1.0000E-10  1.0000E-10  1.0000E-10  5.0000E-10
   7   8.0000E-10  5.0000E-10  5.0000E-10  2.0000E-10  2.0000E-10  1.0000E-10  1.0000E-10  2.0000E-10  2.0000E-10   0.000    
   8    0.000      5.0000E-10  5.0000E-10  2.0000E-10  2.0000E-10  1.0000E-10  1.0000E-10  2.0000E-10  5.0000E-10   0.000    
   9    0.000      5.0000E-10  5.0000E-10  2.0000E-10  2.0000E-10  1.0000E-10  1.0000E-10  2.0000E-10  5.0000E-10   0.000    
  10    0.000      5.0000E-10  5.0000E-10  2.0000E-10  2.0000E-10  1.0000E-10  1.0000E-10  2.0000E-10  5.0000E-10  8.0000E-10
  11    0.000      1.0000E-10  1.0000E-10  1.0000E-10  1.0000E-10  1.0000E-10  1.0000E-10  2.0000E-10  5.0000E-10   0.000    
  12   1.0000E-10  1.0000E-10  1.0000E-10  1.0000E-10  1.0000E-10  1.0000E-10  1.0000E-10  1.0000E-10  2.0000E-10   0.000    
  13   1.0000E-10  1.0000E-10  2.0000E-10  2.0000E-10  2.0000E-10  2.0000E-10  2.0000E-10  1.0000E-10  1.0000E-10   0.000    
  14    0.000      2.0000E-10  5.0000E-10  5.0000E-10  5.0000E-10  5.0000E-10  5.0000E-10  2.0000E-10  1.0000E-10   0.000    
  15    0.000       0.000      8.0000E-10  8.0000E-10  8.0000E-10  8.0000E-10   0.000       0.000       0.000       0.000    

                  ET RATE =  5.000000E-10

 USING ET EXTINCTION DEPTH FROM PREVIOUS STRESS PERIOD. CURRENT PERIOD IS:      16

 USING EXTINCTION WATER CONTENT FROM PREVIOUS STRESS PERIOD. CURRENT PERIOD IS:      16

 USING AIR ENTRY PRESSURE FROM PREVIOUS STRESS PERIOD. CURRENT PERIOD IS:      16

 USING ROOT PRESSURE HEAD FROM PREVIOUS STRESS PERIOD. CURRENT PERIOD IS:      16

 USING ROOT ACTIVITY FROM PREVIOUS STRESS PERIOD. CURRENT PERIOD IS:      16

 PROCESSING AG STRESS PERIOD DATA

 READING AG STRESS PERIOD DATA

 READING IRRIGATION SEGMENT

 READING IRRIGATION WELL

 READING SUPPLEMENTAL WELL

 NO IRRPOND OR REUSING IRRPOND DATA FROM LAST STRESS PERIOD

 END PROCESSING AG STRESS PERIOD DATA OPTIONS
 
 SOLVING FOR HEAD 
                                                   Max.-Head-Change                         Max.-Flux-Residual
  Residual-Control   Outer-Iter.   Inner-Iter.     Column Row Layer    Maximum-Head-Change  Column Row Layer    Maximum-Flux-Residual          L2-NORM 
          0                 1           2             4   13     1       0.2050063048E-01       4   13    1         0.1182226281E+01      0.3214985344E+01
          0                 2           2             4    7     1       0.2634535743E-02       4    7    1         0.1384968004E+00      0.4337778127E+00
          0                 3           2             4    7     1       0.8093204104E-03       4    7    1         0.4241007557E-01      0.9575206104E-01
          0                 4           2             4    7     1       0.2484669626E-03       4    7    1         0.1303620297E-01      0.2840850303E-01
          0                 5           1             4    7     1       0.7623656196E-04       4    7    1         0.4001208209E-02      0.8606089078E-02

    ------------------------------------------------
       NWT REQUIRED            5 OUTER ITERATIONS 
       AND A TOTAL OF          9 INNER ITERATIONS.
    ------------------------------------------------

 NO OUTPUT CONTROL FOR STRESS PERIOD   16   TIME STEP    1
 
 SOLVING FOR HEAD 
                                                   Max.-Head-Change                         Max.-Flux-Residual
  Residual-Control   Outer-Iter.   Inner-Iter.     Column Row Layer    Maximum-Head-Change  Column Row Layer    Maximum-Flux-Residual          L2-NORM 
          0                 1           2             4   13     1       0.1849127673E-01       4   13    1         0.1065672990E+01      0.3104379767E+01
          0                 2           2             4    7     1       0.2624102419E-02       4    7    1         0.1379411728E+00      0.4256305424E+00
          0                 3           2             4    7     1       0.8061606926E-03       4    7    1         0.4224280534E-01      0.9536972137E-01
          0                 4           2             4    7     1       0.2475101391E-03       4    7    1         0.1298548156E-01      0.2833586469E-01
          0                 5           1             4    7     1       0.7594683883E-04       4    7    1         0.3985851636E-02      0.8584140970E-02

    ------------------------------------------------
       NWT REQUIRED            5 OUTER ITERATIONS 
       AND A TOTAL OF          9 INNER ITERATIONS.
    ------------------------------------------------

 NO OUTPUT CONTROL FOR STRESS PERIOD   16   TIME STEP    2
 
 SOLVING FOR HEAD 
                                                   Max.-Head-Change                         Max.-Flux-Residual
  Residual-Control   Outer-Iter.   Inner-Iter.     Column Row Layer    Maximum-Head-Change  Column Row Layer    Maximum-Flux-Residual          L2-NORM 
          0                 1           2             2   13     1       0.1674963037E-01       4   13    1         0.9612281540E+00      0.3008133076E+01
          0                 2           2             4    7     1       0.2613852735E-02       4    7    1         0.1373956688E+00      0.4185543971E+00
          0                 3           2             4    7     1       0.8030538202E-03       4    7    1         0.4207844416E-01      0.9500629588E-01
          0                 4           2             4    7     1       0.2465684905E-03       4    7    1         0.1293559737E-01      0.2826203935E-01
          0                 5           1             4    7     1       0.7566146538E-04       4    7    1         0.3970735384E-02      0.8561815138E-02

    ------------------------------------------------
       NWT REQUIRED            5 OUTER ITERATIONS 
       AND A TOTAL OF          9 INNER ITERATIONS.
    ------------------------------------------------

 NO OUTPUT CONTROL FOR STRESS PERIOD   16   TIME STEP    3
 
 SOLVING FOR HEAD 
                                                   Max.-Head-Change                         Max.-Flux-Residual
  Residual-Control   Outer-Iter.   Inner-Iter.     Column Row Layer    Maximum-Head-Change  Column Row Layer    Maximum-Flux-Residual          L2-NORM 
          0                 1           2             3    7     1       0.1580746216E-01       2   13    1         0.8730894785E+00      0.2924429378E+01
          0                 2           2             4    7     1       0.2603695045E-02       4    7    1         0.1368552858E+00      0.4123910997E+00
          0                 3           2             4    7     1       0.7999732958E-03       4    7    1         0.4191553642E-01      0.9465845495E-01
          0                 4           2             4    7     1       0.2456343583E-03       4    7    1         0.1288613016E-01      0.2818702538E-01
          0                 5           1             4    7     1       0.7537822588E-04       4    7    1         0.3955737885E-02      0.8539105475E-02

    ------------------------------------------------
       NWT REQUIRED            5 OUTER ITERATIONS 
       AND A TOTAL OF          9 INNER ITERATIONS.
    ------------------------------------------------

 NO OUTPUT CONTROL FOR STRESS PERIOD   16   TIME STEP    4
 
 SOLVING FOR HEAD 
                                                   Max.-Head-Change                         Max.-Flux-Residual
  Residual-Control   Outer-Iter.   Inner-Iter.     Column Row Layer    Maximum-Head-Change  Column Row Layer    Maximum-Flux-Residual          L2-NORM 
          0                 1           2             3    7     1       0.1570544847E-01       2   13    1         0.8041050668E+00      0.2851638884E+01
          0                 2           2             4    7     1       0.2593697780E-02       4    7    1         0.1363238405E+00      0.4070002792E+00
          0                 3           2             4    7     1       0.7969383583E-03       4    7    1         0.4175516102E-01      0.9432183918E-01
          0                 4           2             4    7     1       0.2447131448E-03       4    7    1         0.1283738285E-01      0.2811063168E-01
          0                 5           1             4    7     1       0.7509863650E-04       4    7    1         0.3940944184E-02      0.8515965873E-02

    ------------------------------------------------
       NWT REQUIRED            5 OUTER ITERATIONS 
       AND A TOTAL OF          9 INNER ITERATIONS.
    ------------------------------------------------

 NO OUTPUT CONTROL FOR STRESS PERIOD   16   TIME STEP    5
 
 SOLVING FOR HEAD 
                                                   Max.-Head-Change                         Max.-Flux-Residual
  Residual-Control   Outer-Iter.   Inner-Iter.     Column Row Layer    Maximum-Head-Change  Column Row Layer    Maximum-Flux-Residual          L2-NORM 
          0                 1           2             3    7     1       0.1560526547E-01       2   13    1         0.7406110874E+00      0.2788308337E+01
          0                 2           2             4    7     1       0.2583849546E-02       4    7    1         0.1358006587E+00      0.4022671158E+00
          0                 3           2             4    7     1       0.7939461806E-03       4    7    1         0.4159714250E-01      0.9399531442E-01
          0                 4           2             4    7     1       0.2438041792E-03       4    7    1         0.1278931256E-01      0.2803328581E-01
          0                 5           1             4    7     1       0.7482255017E-04       4    7    1         0.3926344330E-02      0.8492521293E-02

    ------------------------------------------------
       NWT REQUIRED            5 OUTER ITERATIONS 
       AND A TOTAL OF          9 INNER ITERATIONS.
    ------------------------------------------------

 NO OUTPUT CONTROL FOR STRESS PERIOD   16   TIME STEP    6
 
 SOLVING FOR HEAD 
                                                   Max.-Head-Change                         Max.-Flux-Residual
  Residual-Control   Outer-Iter.   Inner-Iter.     Column Row Layer    Maximum-Head-Change  Column Row Layer    Maximum-Flux-Residual          L2-NORM 
          0                 1           2             3    7     1       0.1550589483E-01       2   13    1         0.6821702115E+00      0.2733158988E+01
          0                 2           2             4    7     1       0.2574062136E-02       4    7    1         0.1352808188E+00      0.3981077703E+00
          0                 3           2             4    7     1       0.7909716310E-03       4    7    1         0.4144008898E-01      0.9367741693E-01
          0                 4           2             4    7     1       0.2429002957E-03       4    7    1         0.1274152207E-01      0.2795502728E-01
          0                 5           1             4    7     1       0.7454792000E-04       4    7    1         0.3911824998E-02      0.8468793402E-02

    ------------------------------------------------
       NWT REQUIRED            5 OUTER ITERATIONS 
       AND A TOTAL OF          9 INNER ITERATIONS.
    ------------------------------------------------

 NO OUTPUT CONTROL FOR STRESS PERIOD   16   TIME STEP    7
 
 SOLVING FOR HEAD 
                                                   Max.-Head-Change                         Max.-Flux-Residual
  Residual-Control   Outer-Iter.   Inner-Iter.     Column Row Layer    Maximum-Head-Change  Column Row Layer    Maximum-Flux-Residual          L2-NORM 
          0                 1           2             3    7     1       0.1540829885E-01       2   13    1         0.6283809095E+00      0.2685039855E+01
          0                 2           2             4    7     1       0.2564408974E-02       4    7    1         0.1347684309E+00      0.3943869345E+00
          0                 3           2             4    7     1       0.7880355790E-03       4    7    1         0.4128515782E-01      0.9336500520E-01
          0                 4           2             4    7     1       0.2420074400E-03       4    7    1         0.1269434105E-01      0.2787603350E-01
          0                 5           1             4    7     1       0.7427644497E-04       4    7    1         0.3897480136E-02      0.8444835856E-02

    ------------------------------------------------
       NWT REQUIRED            5 OUTER ITERATIONS 
       AND A TOTAL OF          9 INNER ITERATIONS.
    ------------------------------------------------

 NO OUTPUT CONTROL FOR STRESS PERIOD   16   TIME STEP    8
 
 SOLVING FOR HEAD 
                                                   Max.-Head-Change                         Max.-Flux-Residual
  Residual-Control   Outer-Iter.   Inner-Iter.     Column Row Layer    Maximum-Head-Change  Column Row Layer    Maximum-Flux-Residual          L2-NORM 
          0                 1           2             3    7     1       0.1531194952E-01       6    7    1         0.5877580939E+00      0.2642926188E+01
          0                 2           2             4    7     1       0.2554801272E-02       4    7    1         0.1342586143E+00      0.3910893571E+00
          0                 3           2             4    7     1       0.7851122503E-03       4    7    1         0.4113094109E-01      0.9305774813E-01
          0                 4           2             4    7     1       0.2411181007E-03       4    7    1         0.1264736012E-01      0.2779574500E-01
          0                 5           1             4    7     1       0.7400592936E-04       4    7    1         0.3883190420E-02      0.8420482256E-02

    ------------------------------------------------
       NWT REQUIRED            5 OUTER ITERATIONS 
       AND A TOTAL OF          9 INNER ITERATIONS.
    ------------------------------------------------

 NO OUTPUT CONTROL FOR STRESS PERIOD   16   TIME STEP    9
 
 SOLVING FOR HEAD 
                                                   Max.-Head-Change                         Max.-Flux-Residual
  Residual-Control   Outer-Iter.   Inner-Iter.     Column Row Layer    Maximum-Head-Change  Column Row Layer    Maximum-Flux-Residual          L2-NORM 
          0                 1           2             3    7     1       0.1521730761E-01       6    7    1         0.5844080684E+00      0.2606011205E+01
          0                 2           2             4    7     1       0.2545317109E-02       4    7    1         0.1337555978E+00      0.3880982508E+00
          0                 3           2             4    7     1       0.7822247701E-03       4    7    1         0.4097868320E-01      0.9275403740E-01
          0                 4           2             4    7     1       0.2402391549E-03       4    7    1         0.1260094847E-01      0.2771488515E-01
          0                 5           1             4    7     1       0.7373842360E-04       4    7    1         0.3869065634E-02      0.8395950975E-02

    ------------------------------------------------
       NWT REQUIRED            5 OUTER ITERATIONS 
       AND A TOTAL OF          9 INNER ITERATIONS.
    ------------------------------------------------

 NO OUTPUT CONTROL FOR STRESS PERIOD   16   TIME STEP   10
 
 SOLVING FOR HEAD 
                                                   Max.-Head-Change                         Max.-Flux-Residual
  Residual-Control   Outer-Iter.   Inner-Iter.     Column Row Layer    Maximum-Head-Change  Column Row Layer    Maximum-Flux-Residual          L2-NORM 
          0                 1           2             3    7     1       0.1512336234E-01       6    7    1         0.5811330423E+00      0.2573562282E+01
          0                 2           2             4    7     1       0.2535943352E-02       4    7    1         0.1332587367E+00      0.3854069577E+00
          0                 3           2             4    7     1       0.7793686025E-03       4    7    1         0.4082816743E-01      0.9245328534E-01
          0                 4           2             4    7     1       0.2393690706E-03       4    7    1         0.1255503106E-01      0.2763320198E-01
          0                 5           1             4    7     1       0.7347341944E-04       4    7    1         0.3855080627E-02      0.8371173769E-02

    ------------------------------------------------
       NWT REQUIRED            5 OUTER ITERATIONS 
       AND A TOTAL OF          9 INNER ITERATIONS.
    ------------------------------------------------

 NO OUTPUT CONTROL FOR STRESS PERIOD   16   TIME STEP   11
 
 SOLVING FOR HEAD 
                                                   Max.-Head-Change                         Max.-Flux-Residual
  Residual-Control   Outer-Iter.   Inner-Iter.     Column Row Layer    Maximum-Head-Change  Column Row Layer    Maximum-Flux-Residual          L2-NORM 
          0                 1           2             3    7     1       0.1503107389E-01       6    7    1         0.5779441342E+00      0.2544943000E+01
          0                 2           2             4    7     1       0.2526596457E-02       4    7    1         0.1327633818E+00      0.3829578173E+00
          0                 3           2             4    7     1       0.7765202169E-03       4    7    1         0.4067807586E-01      0.9215344595E-01
          0                 4           2             4    7     1       0.2385012186E-03       4    7    1         0.1250923719E-01      0.2755076697E-01
          0                 5           1             4    7     1       0.7320904907E-04       4    7    1         0.3841130922E-02      0.8346165350E-02

    ------------------------------------------------
       NWT REQUIRED            5 OUTER ITERATIONS 
       AND A TOTAL OF          9 INNER ITERATIONS.
    ------------------------------------------------

 NO OUTPUT CONTROL FOR STRESS PERIOD   16   TIME STEP   12
 
 SOLVING FOR HEAD 
                                                   Max.-Head-Change                         Max.-Flux-Residual
  Residual-Control   Outer-Iter.   Inner-Iter.     Column Row Layer    Maximum-Head-Change  Column Row Layer    Maximum-Flux-Residual          L2-NORM 
          0                 1           2             3    7     1       0.1494040778E-01       6    7    1         0.5748229365E+00      0.2519608114E+01
          0                 2           2             4    7     1       0.2517353411E-02       4    7    1         0.1322737869E+00      0.3807643067E+00
          0                 3           2             4    7     1       0.7737017138E-03       4    7    1         0.4052962672E-01      0.9185986193E-01
          0                 4           2             4    7     1       0.2376419644E-03       4    7    1         0.1246391691E-01      0.2746800903E-01
          0                 5           1             4    7     1       0.7294715229E-04       4    7    1         0.3827317451E-02      0.8321051291E-02

    ------------------------------------------------
       NWT REQUIRED            5 OUTER ITERATIONS 
       AND A TOTAL OF          9 INNER ITERATIONS.
    ------------------------------------------------

 NO OUTPUT CONTROL FOR STRESS PERIOD   16   TIME STEP   13
 
 SOLVING FOR HEAD 
                                                   Max.-Head-Change                         Max.-Flux-Residual
  Residual-Control   Outer-Iter.   Inner-Iter.     Column Row Layer    Maximum-Head-Change  Column Row Layer    Maximum-Flux-Residual          L2-NORM 
          0                 1           2             3    7     1       0.1485034683E-01       6    7    1         0.5717811532E+00      0.2497005219E+01
          0                 2           2             4    7     1       0.2508127141E-02       4    7    1         0.1317851625E+00      0.3786355902E+00
          0                 3           2             4    7     1       0.7708877367E-03       4    7    1         0.4038143912E-01      0.9156310388E-01
          0                 4           2             4    7     1       0.2367838959E-03       4    7    1         0.1241866706E-01      0.2738430734E-01
          0                 5           1             4    7     1       0.7268555465E-04       4    7    1         0.3813522267E-02      0.8295660368E-02

    ------------------------------------------------
       NWT REQUIRED            5 OUTER ITERATIONS 
       AND A TOTAL OF          9 INNER ITERATIONS.
    ------------------------------------------------

 NO OUTPUT CONTROL FOR STRESS PERIOD   16   TIME STEP   14
 
 SOLVING FOR HEAD 
                                                   Max.-Head-Change                         Max.-Flux-Residual
  Residual-Control   Outer-Iter.   Inner-Iter.     Column Row Layer    Maximum-Head-Change  Column Row Layer    Maximum-Flux-Residual          L2-NORM 
          0                 1           2             3    7     1       0.1476185812E-01       6    7    1         0.5688157108E+00      0.2476808351E+01
          0                 2           2             4    7     1       0.2499075552E-02       4    7    1         0.1313061485E+00      0.3767075686E+00
          0                 3           2             4    7     1       0.7681243791E-03       4    7    1         0.4023602114E-01      0.9126963930E-01
          0                 4           2             4    7     1       0.2359405012E-03       4    7    1         0.1237422076E-01      0.2730044431E-01
          0                 5           1             4    7     1       0.7242821114E-04       4    7    1         0.3799959975E-02      0.8270216646E-02

    ------------------------------------------------
       NWT REQUIRED            5 OUTER ITERATIONS 
       AND A TOTAL OF          9 INNER ITERATIONS.
    ------------------------------------------------

 NO OUTPUT CONTROL FOR STRESS PERIOD   16   TIME STEP   15
 
 SOLVING FOR HEAD 
                                                   Max.-Head-Change                         Max.-Flux-Residual
  Residual-Control   Outer-Iter.   Inner-Iter.     Column Row Layer    Maximum-Head-Change  Column Row Layer    Maximum-Flux-Residual          L2-NORM 
          0                 1           2             3    7     1       0.1467441839E-01       6    7    1         0.5659083136E+00      0.2458674113E+01
          0                 2           2             4    7     1       0.2489950777E-02       4    7    1         0.1308231478E+00      0.3749052867E+00
          0                 3           2             4    7     1       0.7653398043E-03       4    7    1         0.4008944016E-01      0.9097674421E-01
          0                 4           2             4    7     1       0.2350909373E-03       4    7    1         0.1232943768E-01      0.2721606150E-01
          0                 5           1             4    7     1       0.7216906984E-04       4    7    1         0.3786299690E-02      0.8244614547E-02

    ------------------------------------------------
       NWT REQUIRED            5 OUTER ITERATIONS 
       AND A TOTAL OF          9 INNER ITERATIONS.
    ------------------------------------------------

 NO OUTPUT CONTROL FOR STRESS PERIOD   16   TIME STEP   16
 
 SOLVING FOR HEAD 
                                                   Max.-Head-Change                         Max.-Flux-Residual
  Residual-Control   Outer-Iter.   Inner-Iter.     Column Row Layer    Maximum-Head-Change  Column Row Layer    Maximum-Flux-Residual          L2-NORM 
          0                 1           2             3    7     1       0.1458849313E-01       6    7    1         0.5630716983E+00      0.2442302984E+01
          0                 2           2             4    7     1       0.2480991416E-02       4    7    1         0.1303493552E+00      0.3732092269E+00
          0                 3           2             4    7     1       0.7626023962E-03       4    7    1         0.3994547105E-01      0.9068459070E-01
          0                 4           2             4    7     1       0.2342548228E-03       4    7    1         0.1228540027E-01      0.2713128118E-01
          0                 5           1             4    7     1       0.7191376274E-04       4    7    1         0.3772851981E-02      0.8218895326E-02

    ------------------------------------------------
       NWT REQUIRED            5 OUTER ITERATIONS 
       AND A TOTAL OF          9 INNER ITERATIONS.
    ------------------------------------------------

 NO OUTPUT CONTROL FOR STRESS PERIOD   16   TIME STEP   17
 
 SOLVING FOR HEAD 
                                                   Max.-Head-Change                         Max.-Flux-Residual
  Residual-Control   Outer-Iter.   Inner-Iter.     Column Row Layer    Maximum-Head-Change  Column Row Layer    Maximum-Flux-Residual          L2-NORM 
          0                 1           2             3    7     1       0.1450355563E-01       6    7    1         0.5602874905E+00      0.2427437722E+01
          0                 2           2             4    7     1       0.2472034450E-02       4    7    1         0.1298756127E+00      0.3716049139E+00
          0                 3           2             4    7     1       0.7598664050E-03       4    7    1         0.3980154887E-01      0.9039338212E-01
          0                 4           2             4    7     1       0.2334193141E-03       4    7    1         0.1224138829E-01      0.2704630669E-01
          0                 5           1             4    7     1       0.7165868424E-04       4    7    1         0.3759414688E-02      0.8193122638E-02

    ------------------------------------------------
       NWT REQUIRED            5 OUTER ITERATIONS 
       AND A TOTAL OF          9 INNER ITERATIONS.
    ------------------------------------------------

 NO OUTPUT CONTROL FOR STRESS PERIOD   16   TIME STEP   18
 
 SOLVING FOR HEAD 
                                                   Max.-Head-Change                         Max.-Flux-Residual
  Residual-Control   Outer-Iter.   Inner-Iter.     Column Row Layer    Maximum-Head-Change  Column Row Layer    Maximum-Flux-Residual          L2-NORM 
          0                 1           2             3    7     1       0.1441958739E-01       6    7    1         0.5575687442E+00      0.2413887470E+01
          0                 2           2             4    7     1       0.2463157567E-02       4    7    1         0.1294062933E+00      0.3700871295E+00
          0                 3           2             4    7     1       0.7571535506E-03       4    7    1         0.3965889494E-01      0.9010334649E-01
          0                 4           2             4    7     1       0.2325904921E-03       4    7    1         0.1219774335E-01      0.2696118684E-01
          0                 5           1             4    7     1       0.7140553835E-04       4    7    1         0.3746083422E-02      0.8167293251E-02

    ------------------------------------------------
       NWT REQUIRED            5 OUTER ITERATIONS 
       AND A TOTAL OF          9 INNER ITERATIONS.
    ------------------------------------------------

 NO OUTPUT CONTROL FOR STRESS PERIOD   16   TIME STEP   19
 
 SOLVING FOR HEAD 
                                                   Max.-Head-Change                         Max.-Flux-Residual
  Residual-Control   Outer-Iter.   Inner-Iter.     Column Row Layer    Maximum-Head-Change  Column Row Layer    Maximum-Flux-Residual          L2-NORM 
          0                 1           2             3    7     1       0.1433693639E-01       6    7    1         0.5548977245E+00      0.2401445497E+01
          0                 2           2             4    7     1       0.2454273580E-02       4    7    1         0.1289367119E+00      0.3686194703E+00
          0                 3           2             4    7     1       0.7544379154E-03       4    7    1         0.3951611643E-01      0.8981210767E-01
          0                 4           2             4    7     1       0.2317606402E-03       4    7    1         0.1215405140E-01      0.2687539184E-01
          0                 5           1             4    7     1       0.7115202480E-04       4    7    1         0.3732734898E-02      0.8141268722E-02

    ------------------------------------------------
       NWT REQUIRED            5 OUTER ITERATIONS 
       AND A TOTAL OF          9 INNER ITERATIONS.
    ------------------------------------------------

 NO OUTPUT CONTROL FOR STRESS PERIOD   16   TIME STEP   20
 
 SOLVING FOR HEAD 
                                                   Max.-Head-Change                         Max.-Flux-Residual
  Residual-Control   Outer-Iter.   Inner-Iter.     Column Row Layer    Maximum-Head-Change  Column Row Layer    Maximum-Flux-Residual          L2-NORM 
          0                 1           2             3    7     1       0.1425510473E-01       6    7    1         0.5522878859E+00      0.2389926595E+01
          0                 2           2             4    7     1       0.2445547587E-02       4    7    1         0.1284756810E+00      0.3672182553E+00
          0                 3           2             4    7     1       0.7517689982E-03       4    7    1         0.3937585674E-01      0.8952325904E-01
          0                 4           2             4    7     1       0.2309446119E-03       4    7    1         0.1211110487E-01      0.2679000460E-01
          0                 5           1             4    7     1       0.7090260381E-04       4    7    1         0.3719606951E-02      0.8115367120E-02

    ------------------------------------------------
       NWT REQUIRED            5 OUTER ITERATIONS 
       AND A TOTAL OF          9 INNER ITERATIONS.
    ------------------------------------------------

 NO OUTPUT CONTROL FOR STRESS PERIOD   16   TIME STEP   21
 
 SOLVING FOR HEAD 
                                                   Max.-Head-Change                         Max.-Flux-Residual
  Residual-Control   Outer-Iter.   Inner-Iter.     Column Row Layer    Maximum-Head-Change  Column Row Layer    Maximum-Flux-Residual          L2-NORM 
          0                 1           2             3    7     1       0.1417456121E-01       6    7    1         0.5497359453E+00      0.2379234193E+01
          0                 2           2             4    7     1       0.2436727168E-02       4    7    1         0.1280096158E+00      0.3658599985E+00
          0                 3           2             4    7     1       0.7490718978E-03       4    7    1         0.3923408546E-01      0.8923238625E-01
          0                 4           2             4    7     1       0.2301201491E-03       4    7    1         0.1206770766E-01      0.2670372296E-01
          0                 5           1             4    7     1       0.7065065370E-04       4    7    1         0.3706344043E-02      0.8089199791E-02

    ------------------------------------------------
       NWT REQUIRED            5 OUTER ITERATIONS 
       AND A TOTAL OF          9 INNER ITERATIONS.
    ------------------------------------------------

 NO OUTPUT CONTROL FOR STRESS PERIOD   16   TIME STEP   22
 
 SOLVING FOR HEAD 
                                                   Max.-Head-Change                         Max.-Flux-Residual
  Residual-Control   Outer-Iter.   Inner-Iter.     Column Row Layer    Maximum-Head-Change  Column Row Layer    Maximum-Flux-Residual          L2-NORM 
          0                 1           2             3    7     1       0.1409479121E-01       6    7    1         0.5472401196E+00      0.2369276272E+01
          0                 2           2             4    7     1       0.2428058294E-02       4    7    1         0.1275518535E+00      0.3645510430E+00
          0                 3           2             4    7     1       0.7464189014E-03       4    7    1         0.3909471998E-01      0.8894388116E-01
          0                 4           2             4    7     1       0.2293085465E-03       4    7    1         0.1202501141E-01      0.2661789984E-01
          0                 5           1             4    7     1       0.7040245976E-04       4    7    1         0.3693285587E-02      0.8063165408E-02

    ------------------------------------------------
       NWT REQUIRED            5 OUTER ITERATIONS 
       AND A TOTAL OF          9 INNER ITERATIONS.
    ------------------------------------------------

 NO OUTPUT CONTROL FOR STRESS PERIOD   16   TIME STEP   23
 
 SOLVING FOR HEAD 
                                                   Max.-Head-Change                         Max.-Flux-Residual
  Residual-Control   Outer-Iter.   Inner-Iter.     Column Row Layer    Maximum-Head-Change  Column Row Layer    Maximum-Flux-Residual          L2-NORM 
          0                 1           2             3    7     1       0.1401578439E-01       6    7    1         0.5447831306E+00      0.2359945917E+01
          0                 2           2             4    7     1       0.2419374711E-02       4    7    1         0.1270932554E+00      0.3632784249E+00
          0                 3           2             4    7     1       0.7437619598E-03       4    7    1         0.3895512463E-01      0.8865507615E-01
          0                 4           2             4    7     1       0.2284958790E-03       4    7    1         0.1198225384E-01      0.2653178211E-01
          0                 5           1             4    7     1       0.7015397619E-04       4    7    1         0.3680210533E-02      0.8037045071E-02

    ------------------------------------------------
       NWT REQUIRED            5 OUTER ITERATIONS 
       AND A TOTAL OF          9 INNER ITERATIONS.
    ------------------------------------------------

 NO OUTPUT CONTROL FOR STRESS PERIOD   16   TIME STEP   24
 
 SOLVING FOR HEAD 
                                                   Max.-Head-Change                         Max.-Flux-Residual
  Residual-Control   Outer-Iter.   Inner-Iter.     Column Row Layer    Maximum-Head-Change  Column Row Layer    Maximum-Flux-Residual          L2-NORM 
          0                 1           2             3    7     1       0.1393801599E-01       6    7    1         0.5423637205E+00      0.2351162601E+01
          0                 2           2             4    7     1       0.2410754454E-02       4    7    1         0.1266382173E+00      0.3620381581E+00
          0                 3           2             4    7     1       0.7411229571E-03       4    7    1         0.3881652624E-01      0.8836638741E-01
          0                 4           2             4    7     1       0.2276882947E-03       4    7    1         0.1193977943E-01      0.2644553161E-01
          0                 5           1             4    7     1       0.6990693326E-04       4    7    1         0.3667215692E-02      0.8010885353E-02

    ------------------------------------------------
       NWT REQUIRED            5 OUTER ITERATIONS 
       AND A TOTAL OF          9 INNER ITERATIONS.
    ------------------------------------------------

 NO OUTPUT CONTROL FOR STRESS PERIOD   16   TIME STEP   25
 
 SOLVING FOR HEAD 
                                                   Max.-Head-Change                         Max.-Flux-Residual
  Residual-Control   Outer-Iter.   Inner-Iter.     Column Row Layer    Maximum-Head-Change  Column Row Layer    Maximum-Flux-Residual          L2-NORM 
          0                 1           2             3    7     1       0.1386097091E-01       6    7    1         0.5400097033E+00      0.2342872065E+01
          0                 2           2             4    7     1       0.2402118210E-02       4    7    1         0.1261822657E+00      0.3608263689E+00
          0                 3           2             4    7     1       0.7384796856E-03       4    7    1         0.3867767842E-01      0.8807748756E-01
          0                 4           2             4    7     1       0.2268795656E-03       4    7    1         0.1189723876E-01      0.2635905387E-01
          0                 5           1             4    7     1       0.6965958119E-04       4    7    1         0.3654203028E-02      0.7984658117E-02

    ------------------------------------------------
       NWT REQUIRED            5 OUTER ITERATIONS 
       AND A TOTAL OF          9 INNER ITERATIONS.
    ------------------------------------------------

 NO OUTPUT CONTROL FOR STRESS PERIOD   16   TIME STEP   26
 
 SOLVING FOR HEAD 
                                                   Max.-Head-Change                         Max.-Flux-Residual
  Residual-Control   Outer-Iter.   Inner-Iter.     Column Row Layer    Maximum-Head-Change  Column Row Layer    Maximum-Flux-Residual          L2-NORM 
          0                 1           2             3    7     1       0.1378464032E-01       6    7    1         0.5376895313E+00      0.2335004412E+01
          0                 2           2             4    7     1       0.2393546914E-02       4    7    1         0.1257298612E+00      0.3596444885E+00
          0                 3           2             4    7     1       0.7358554905E-03       4    7    1         0.3853986308E-01      0.8779061620E-01
          0                 4           2             4    7     1       0.2260764575E-03       4    7    1         0.1185500203E-01      0.2627305265E-01
          0                 5           1             4    7     1       0.6941389086E-04       4    7    1         0.3641280010E-02      0.7958573316E-02

    ------------------------------------------------
       NWT REQUIRED            5 OUTER ITERATIONS 
       AND A TOTAL OF          9 INNER ITERATIONS.
    ------------------------------------------------

 NO OUTPUT CONTROL FOR STRESS PERIOD   16   TIME STEP   27
 
 SOLVING FOR HEAD 
                                                   Max.-Head-Change                         Max.-Flux-Residual
  Residual-Control   Outer-Iter.   Inner-Iter.     Column Row Layer    Maximum-Head-Change  Column Row Layer    Maximum-Flux-Residual          L2-NORM 
          0                 1           2             3    7     1       0.1370950196E-01       6    7    1         0.5354162120E+00      0.2327512491E+01
          0                 2           2             4    7     1       0.2385034588E-02       4    7    1         0.1252807635E+00      0.3584831252E+00
          0                 3           2             4    7     1       0.7332480421E-03       4    7    1         0.3840297699E-01      0.8750300148E-01
          0                 4           2             4    7     1       0.2252780983E-03       4    7    1         0.1181302979E-01      0.2618669360E-01
          0                 5           1             4    7     1       0.6916954538E-04       4    7    1         0.3628431932E-02      0.7932383106E-02

    ------------------------------------------------
       NWT REQUIRED            5 OUTER ITERATIONS 
       AND A TOTAL OF          9 INNER ITERATIONS.
    ------------------------------------------------

 NO OUTPUT CONTROL FOR STRESS PERIOD   16   TIME STEP   28
 
 SOLVING FOR HEAD 
                                                   Max.-Head-Change                         Max.-Flux-Residual
  Residual-Control   Outer-Iter.   Inner-Iter.     Column Row Layer    Maximum-Head-Change  Column Row Layer    Maximum-Flux-Residual          L2-NORM 
          0                 1           2             3    7     1       0.1363552929E-01       6    7    1         0.5331731367E+00      0.2320341564E+01
          0                 2           2             4    7     1       0.2376506014E-02       4    7    1         0.1248306688E+00      0.3573428438E+00
          0                 3           2             4    7     1       0.7306368493E-03       4    7    1         0.3826584463E-01      0.8721636128E-01
          0                 4           2             4    7     1       0.2244789290E-03       4    7    1         0.1177100211E-01      0.2610054391E-01
          0                 5           1             4    7     1       0.6892504357E-04       4    7    1         0.3615572106E-02      0.7906256027E-02

    ------------------------------------------------
       NWT REQUIRED            5 OUTER ITERATIONS 
       AND A TOTAL OF          9 INNER ITERATIONS.
    ------------------------------------------------

 NO OUTPUT CONTROL FOR STRESS PERIOD   16   TIME STEP   29
 
 SOLVING FOR HEAD 
                                                   Max.-Head-Change                         Max.-Flux-Residual
  Residual-Control   Outer-Iter.   Inner-Iter.     Column Row Layer    Maximum-Head-Change  Column Row Layer    Maximum-Flux-Residual          L2-NORM 
          0                 1           2             3    7     1       0.1356221197E-01       6    7    1         0.5226418051E+00      0.2279235668E+01
          0                 2           2             4    7     1       0.2368092404E-02       4    7    1         0.1243875160E+00      0.3539993794E+00
          0                 3           2             4    7     1       0.7280543235E-03       4    7    1         0.3813047305E-01      0.8687588424E-01
          0                 4           2             4    7     1       0.2236866493E-03       4    7    1         0.1172941032E-01      0.2601027774E-01
          0                 5           1             4    7     1       0.6868210546E-04       4    7    1         0.3602815777E-02      0.7878978924E-02

    ------------------------------------------------
       NWT REQUIRED            5 OUTER ITERATIONS 
       AND A TOTAL OF          9 INNER ITERATIONS.
    ------------------------------------------------

 NO OUTPUT CONTROL FOR STRESS PERIOD   16   TIME STEP   30



 STREAM LISTING     PERIOD     16   STEP       30

 LAYER ROW COL. STREAM  RCH.  FLOW INTO     FLOW TO   FLOW OUT OF   OVRLND.     DIRECT     STREAM       STREAM     STREAM     STREAM   STREAMBED  STREAMBED
                SEG.NO.  NO.  STRM. RCH.    AQUIFER    STRM. RCH.    RUNOFF     PRECIP       ET          HEAD       DEPTH      WIDTH   CONDCTNC.   GRADIENT

   1    1    1     1     1    6.6341E+01  3.9373E-01   6.5947E+01  0.000E+00  0.000E+00  0.000E+00  1.09465E+03  1.601E+00  1.902E+01  8.558E-02  1.534E+00
   1    2    2     1     2    6.5947E+01  6.0983E-01   6.5338E+01  0.000E+00  0.000E+00  0.000E+00  1.08965E+03  1.595E+00  1.896E+01  1.327E-01  1.532E+00
   1    3    3     1     3    6.5338E+01  5.2015E-01   6.4817E+01  0.000E+00  0.000E+00  0.000E+00  1.08401E+03  1.588E+00  1.889E+01  1.134E-01  1.529E+00
   1    3    4     1     4    6.4817E+01  4.7905E-01   6.4338E+01  0.000E+00  0.000E+00  0.000E+00  1.07899E+03  1.582E+00  1.884E+01  1.045E-01  1.527E+00
   1    4    5     2     1    6.2338E+01  3.9665E-01   6.1942E+01  0.000E+00  0.000E+00  0.000E+00  1.07402E+03  2.085E+00  1.200E+01  7.800E-02  1.695E+00
   1    5    6     2     2    6.1942E+01  3.0469E-01   6.1637E+01  0.000E+00  0.000E+00  0.000E+00  1.06859E+03  2.078E+00  1.200E+01  6.000E-02  1.693E+00
   1    6    6     2     3    6.1637E+01  3.0432E-01   6.1333E+01  0.000E+00  0.000E+00  0.000E+00  1.06386E+03  2.072E+00  1.200E+01  6.000E-02  1.691E+00
   1    7    6     2     4    6.1333E+01  3.0396E-01   6.1029E+01  0.000E+00  0.000E+00  0.000E+00  1.05914E+03  2.066E+00  1.200E+01  6.000E-02  1.689E+00
   1    8    6     2     5    6.1029E+01  3.0359E-01   6.0725E+01  0.000E+00  0.000E+00  0.000E+00  1.05442E+03  2.060E+00  1.200E+01  6.000E-02  1.687E+00
   1    3    5     3     1    2.0000E+00  2.8252E-01   1.7175E+00  0.000E+00  0.000E+00  0.000E+00  1.07555E+03  1.909E+00  9.636E+00  7.227E-02  1.955E+00
   1    3    6     3     2    1.7175E+00  2.4905E-01   1.4684E+00  0.000E+00  0.000E+00  0.000E+00  1.07264E+03  1.727E+00  8.909E+00  6.682E-02  1.864E+00
   1    3    7     3     3    1.4684E+00  1.9718E-01   1.2712E+00  0.000E+00  0.000E+00  0.000E+00  1.06987E+03  1.555E+00  8.218E+00  5.547E-02  1.777E+00
   1    4    8     3     4    1.2712E+00  2.2567E-01   1.0456E+00  0.000E+00  0.000E+00  0.000E+00  1.06682E+03  1.364E+00  7.455E+00  6.709E-02  1.682E+00
   1    5    8     3     5    1.0456E+00  1.5790E-01   8.8768E-01  0.000E+00  0.000E+00  0.000E+00  1.06362E+03  1.164E+00  6.655E+00  4.991E-02  1.582E+00
   1    6    8     3     6    8.8768E-01  5.5980E-02   8.3170E-01  0.000E+00  0.000E+00  0.000E+00  1.06158E+03  1.036E+00  6.145E+00  1.844E-02  1.518E+00
   1    5   10     4     1    1.0000E+01  9.0919E-02   9.9091E+00  0.000E+00  0.000E+00  0.000E+00  1.07836E+03  6.368E-01  1.000E+01  2.500E-02  1.212E+00
   1    5    9     4     2    9.9091E+00  1.8158E-01   9.7275E+00  0.000E+00  0.000E+00  0.000E+00  1.07154E+03  6.315E-01  1.000E+01  5.000E-02  1.211E+00
   1    6    8     4     3    9.7275E+00  1.2689E-01   9.6006E+00  0.000E+00  0.000E+00  0.000E+00  1.06381E+03  6.256E-01  1.000E+01  3.500E-02  1.209E+00
   1    6    8     5     1    1.0432E+01  2.2686E-01   1.0205E+01  0.000E+00  0.000E+00  0.000E+00  1.05868E+03  6.790E-01  1.542E+01  6.166E-02  1.226E+00
   1    7    7     5     2    1.0205E+01  2.7894E-01   9.9265E+00  0.000E+00  0.000E+00  0.000E+00  1.05417E+03  6.732E-01  1.519E+01  7.594E-02  1.224E+00
   1    8    7     5     3    9.9265E+00  1.9221E-01   9.7343E+00  0.000E+00  0.000E+00  0.000E+00  1.04992E+03  6.676E-01  1.497E+01  5.241E-02  1.223E+00
   1    8    6     5     4    9.7343E+00  1.3577E-01   9.5985E+00  0.000E+00  0.000E+00  0.000E+00  1.04691E+03  6.637E-01  1.482E+01  3.706E-02  1.221E+00
   1    9    6     6     1    7.0324E+01  3.1608E-01   7.0008E+01  0.000E+00  0.000E+00  0.000E+00  1.04500E+03  2.268E+00  1.200E+01  6.000E-02  1.756E+00
   1   10    7     6     2    7.0008E+01  3.1571E-01   6.9692E+01  0.000E+00  0.000E+00  0.000E+00  1.04044E+03  2.262E+00  1.200E+01  6.000E-02  1.754E+00
   1   11    7     6     3    6.9692E+01  3.1534E-01   6.9377E+01  0.000E+00  0.000E+00  0.000E+00  1.03589E+03  2.256E+00  1.200E+01  6.000E-02  1.752E+00
   1   12    7     6     4    6.9377E+01  3.1498E-01   6.9062E+01  0.000E+00  0.000E+00  0.000E+00  1.03134E+03  2.250E+00  1.200E+01  6.000E-02  1.750E+00
   1   13    7     6     5    6.9062E+01  2.9705E-02   6.9032E+01  0.000E+00  0.000E+00  0.000E+00  1.02816E+03  2.246E+00  1.200E+01  2.400E-02  4.126E-01
   1   14    9     7     1    1.5000E+02  1.3405E+00   1.4866E+02  0.000E+00  0.000E+00  0.000E+00  1.03987E+03  2.288E+00  5.529E+01  5.593E-01  7.989E-01
   1   13    8     7     2    1.4866E+02  1.8730E+00   1.4679E+02  0.000E+00  0.000E+00  0.000E+00  1.03478E+03  2.279E+00  5.526E+01  6.148E-01  1.016E+00
   1   13    7     7     3    1.4679E+02  1.5478E+00   1.4524E+02  0.000E+00  0.000E+00  0.000E+00  1.02969E+03  2.270E+00  5.522E+01  5.584E-01  9.239E-01
   1   13    6     8     1    2.1427E+02  1.1902E+00   2.1308E+02  0.000E+00  0.000E+00  0.000E+00  1.02509E+03  3.217E+00  4.664E+01  4.753E-01  8.347E-01
   1   13    5     8     2    2.1308E+02  3.6668E-01   2.1271E+02  0.000E+00  0.000E+00  0.000E+00  1.01884E+03  3.212E+00  4.658E+01  4.746E-01  2.575E-01
   1   13    4     8     3    2.1271E+02 -2.0138E+00   2.1473E+02  0.000E+00  0.000E+00  0.000E+00  1.01259E+03  3.217E+00  4.664E+01  4.753E+00 -1.412E-01
   1   13    3     8     4    2.1473E+02 -3.4633E+00   2.1819E+02  0.000E+00  0.000E+00  0.000E+00  1.00636E+03  3.232E+00  4.687E+01  4.776E+00 -2.417E-01
   1   13    2     8     5    2.1819E+02 -2.5252E+00   2.2072E+02  0.000E+00  0.000E+00  0.000E+00  1.00012E+03  3.249E+00  4.711E+01  4.801E+00 -1.753E-01
   1   13    1     8     6    2.2072E+02 -1.8963E+00   2.2261E+02  0.000E+00  0.000E+00  0.000E+00  9.95136E+02  3.261E+00  4.729E+01  2.891E+00 -2.186E-01
   1    8    6     9     1    0.0000E+00  0.0000E+00   0.0000E+00  0.000E+00  0.000E+00  0.000E+00  1.07875E+03  0.000E+00  4.000E+00  0.000E+00  1.000E+00
   1    8    5     9     2    0.0000E+00  0.0000E+00   0.0000E+00  0.000E+00  0.000E+00  0.000E+00  1.07825E+03  0.000E+00  4.000E+00  0.000E+00  1.000E+00





UNSATURATED ZONE PACKAGE VOLUMETRIC BUDGET FOR  TIME STEP    30 STRESS PERIOD   16
  ------------------------------------------------------------------------------



     CUMULATIVE VOLUMES      L**3       RATES FOR THIS TIME STEP      L**3/T
     ------------------                 ------------------------

           IN:                                      IN:
           ---                                      ---
        INFILTRATION =  2632252141.8946          INFILTRATION =           0.8475

          OUT:                                     OUT:
          ----                                     ----
              UZF ET =   437952341.1847                UZF ET =           0.7500
        UZF RECHARGE =  1862092798.7207          UZF RECHARGE =          10.9022

            IN - OUT =   332207001.9892              IN - OUT =         -10.8047

          STORAGE:                                 STORAGE:
          --------                                 --------
      STORAGE CHANGE =   332687062.9680        STORAGE CHANGE =         -10.8047

 PERCENT DISCREPANCY IS DIFFERENCE BETWEEN IN-OUT MINUS CHANGE IN STORAGE
 DIVIDED BY THE AVERAGE OF IN AND OUT TIMES 100

 PERCENT DISCREPANCY =          -0.00     PERCENT DISCREPANCY =          -0.00






1
  VOLUMETRIC BUDGET FOR AGRICULTURAL FIELDS AT  END OF TIME STEP   30, STRESS PERIOD  16
  ------------------------------------------------------------------------------

     CUMULATIVE VOLUMES      L**3       RATES FOR THIS TIME STEP      L**3/T
     ------------------                 ------------------------

           IN:                                      IN:
           ---                                      ---
               AG WELLS  =  2251250432.0000                 AG WELLS  =           0.0000
      DIVERSION SEGMENTS =   347499584.0000        DIVERSION SEGMENTS =           0.0000
       IRRIGATION PONDS  =           0.0000         IRRIGATION PONDS  =           0.0000
           GW IRRIGATION =           0.0000             GW IRRIGATION =           0.0000
           SW IRRIGATION =           0.0000             SW IRRIGATION =           0.0000
        SYSTEM LOSSES GW =           0.0000          SYSTEM LOSSES GW =           0.0000
        SYSTEM LOSSES SW =           0.0000          SYSTEM LOSSES SW =           0.0000

                TOTAL IN =  2598749952.0000                  TOTAL IN =           0.0000

          OUT:                                     OUT:
          ----                                     ----
               AG WELLS  =           0.0000                 AG WELLS  =           0.0000
      DIVERSION SEGMENTS =           0.0000        DIVERSION SEGMENTS =           0.0000
       IRRIGATION PONDS  =           0.0000         IRRIGATION PONDS  =           0.0000
           GW IRRIGATION =  2251250432.0000             GW IRRIGATION =           0.0000
           SW IRRIGATION =   347506400.0000             SW IRRIGATION =           0.0000
        SYSTEM LOSSES GW =           0.0000          SYSTEM LOSSES GW =           0.0000
        SYSTEM LOSSES SW =           0.0000          SYSTEM LOSSES SW =           0.0000

               TOTAL OUT =  2598756864.0000                 TOTAL OUT =           0.0000

                IN - OUT =       -6912.0000                  IN - OUT =           0.0000

     PERCENT DISCREPANCY =          -0.00         PERCENT DISCREPANCY =           0.00



1
  VOLUMETRIC BUDGET FOR ENTIRE MODEL AT END OF TIME STEP   30, STRESS PERIOD  16
  ------------------------------------------------------------------------------

     CUMULATIVE VOLUMES      L**3       RATES FOR THIS TIME STEP      L**3/T
     ------------------                 ------------------------

           IN:                                      IN:
           ---                                      ---
             STORAGE     =  2463775232.0000               STORAGE     =           1.8009
       CONSTANT HEAD     =           0.0000         CONSTANT HEAD     =           0.0000
     HEAD DEP BOUNDS     =    11299173.0000       HEAD DEP BOUNDS     =           0.2861
      STREAM LEAKAGE     =   478271904.0000        STREAM LEAKAGE     =          13.6275
        UZF RECHARGE     =  1862092672.0000          UZF RECHARGE     =          10.9022
               GW ET     =           0.0000                 GW ET     =           0.0000
     SURFACE LEAKAGE     =           0.0000       SURFACE LEAKAGE     =           0.0000
           AG WELLS      =           0.0000             AG WELLS      =           0.0000

                TOTAL IN =  4815438848.0000                  TOTAL IN =          26.6166

          OUT:                                     OUT:
          ----                                     ----
             STORAGE     =  2137227776.0000               STORAGE     =          16.4145
       CONSTANT HEAD     =           0.0000         CONSTANT HEAD     =           0.0000
     HEAD DEP BOUNDS     =    11494250.0000       HEAD DEP BOUNDS     =           0.2961
      STREAM LEAKAGE     =   414180960.0000        STREAM LEAKAGE     =           9.8986
        UZF RECHARGE     =           0.0000          UZF RECHARGE     =           0.0000
               GW ET     =     1209368.0000                 GW ET     =       1.4668E-03
     SURFACE LEAKAGE     =           0.0000       SURFACE LEAKAGE     =           0.0000
           AG WELLS      =  2251250432.0000             AG WELLS      =           0.0000

               TOTAL OUT =  4815362560.0000                 TOTAL OUT =          26.6107

                IN - OUT =       76288.0000                  IN - OUT =       5.8594E-03

     PERCENT DISCREPANCY =           0.00         PERCENT DISCREPANCY =           0.02






         TIME SUMMARY AT END OF TIME STEP   30 IN STRESS PERIOD   16
                    SECONDS     MINUTES      HOURS       DAYS        YEARS
                    -----------------------------------------------------------
   TIME STEP LENGTH  87667.      1461.1      24.352      1.0147     2.77799E-03
 STRESS PERIOD TIME 2.63000E+06  43833.      730.56      30.440     8.33397E-02
         TOTAL TIME 3.95364E+07 6.58940E+05  10982.      457.60      1.2528    
1
1
                            STRESS PERIOD NO.   17, LENGTH =   2630000.    
                            -----------------------------------------------

                              NUMBER OF TIME STEPS =    30

                               MULTIPLIER FOR DELT =     1.000

                            INITIAL TIME STEP SIZE =   87666.66    

 REUSING NON-PARAMETER GHB CELLS FROM LAST STRESS PERIOD

      2 GHB CELLS

 REUSING STREAM SEGMENT DATA FROM LAST STRESS PERIOD



            AREAL INFILTRATION RATE
 READING ON UNIT   19 WITH FORMAT: (FREE)              

            1           2           3           4           5           6           7           8           9          10
 ........................................................................................................................
   1   1.0000E-10  2.0000E-10   0.000       0.000       0.000       0.000       0.000       0.000       0.000       0.000    
   2   2.0000E-10  1.0000E-10  2.0000E-10   0.000       0.000      8.0000E-10  8.0000E-10  5.0000E-10   0.000       0.000    
   3    0.000      5.0000E-10  1.0000E-10  1.0000E-10  8.0000E-10  8.0000E-10  5.0000E-10  5.0000E-10   0.000       0.000    
   4   8.0000E-10  5.0000E-10  1.0000E-10  1.0000E-10  1.0000E-10  1.0000E-10  1.0000E-10  1.0000E-10  2.0000E-10   0.000    
   5   8.0000E-10  5.0000E-10  1.0000E-10  1.0000E-10  1.0000E-10  1.0000E-10  1.0000E-10  1.0000E-10  1.0000E-10  1.0000E-10
   6   8.0000E-10  5.0000E-10  5.0000E-10  2.0000E-10  2.0000E-10  1.0000E-10  1.0000E-10  1.0000E-10  1.0000E-10  5.0000E-10
   7   8.0000E-10  5.0000E-10  5.0000E-10  2.0000E-10  2.0000E-10  1.0000E-10  1.0000E-10  2.0000E-10  2.0000E-10   0.000    
   8    0.000      5.0000E-10  5.0000E-10  2.0000E-10  2.0000E-10  1.0000E-10  1.0000E-10  2.0000E-10  5.0000E-10   0.000    
   9    0.000      5.0000E-10  5.0000E-10  2.0000E-10  2.0000E-10  1.0000E-10  1.0000E-10  2.0000E-10  5.0000E-10   0.000    
  10    0.000      5.0000E-10  5.0000E-10  2.0000E-10  2.0000E-10  1.0000E-10  1.0000E-10  2.0000E-10  5.0000E-10  8.0000E-10
  11    0.000      1.0000E-10  1.0000E-10  1.0000E-10  1.0000E-10  1.0000E-10  1.0000E-10  2.0000E-10  5.0000E-10   0.000    
  12   1.0000E-10  1.0000E-10  1.0000E-10  1.0000E-10  1.0000E-10  1.0000E-10  1.0000E-10  1.0000E-10  2.0000E-10   0.000    
  13   1.0000E-10  1.0000E-10  2.0000E-10  2.0000E-10  2.0000E-10  2.0000E-10  2.0000E-10  1.0000E-10  1.0000E-10   0.000    
  14    0.000      2.0000E-10  5.0000E-10  5.0000E-10  5.0000E-10  5.0000E-10  5.0000E-10  2.0000E-10  1.0000E-10   0.000    
  15    0.000       0.000      8.0000E-10  8.0000E-10  8.0000E-10  8.0000E-10   0.000       0.000       0.000       0.000    

                  ET RATE =  2.500000E-08

 USING ET EXTINCTION DEPTH FROM PREVIOUS STRESS PERIOD. CURRENT PERIOD IS:      17

 USING EXTINCTION WATER CONTENT FROM PREVIOUS STRESS PERIOD. CURRENT PERIOD IS:      17

 USING AIR ENTRY PRESSURE FROM PREVIOUS STRESS PERIOD. CURRENT PERIOD IS:      17

 USING ROOT PRESSURE HEAD FROM PREVIOUS STRESS PERIOD. CURRENT PERIOD IS:      17

 USING ROOT ACTIVITY FROM PREVIOUS STRESS PERIOD. CURRENT PERIOD IS:      17

 PROCESSING AG STRESS PERIOD DATA

 READING AG STRESS PERIOD DATA

 READING IRRIGATION SEGMENT

 READING IRRIGATION WELL

 READING SUPPLEMENTAL WELL

 NO IRRPOND OR REUSING IRRPOND DATA FROM LAST STRESS PERIOD

 END PROCESSING AG STRESS PERIOD DATA OPTIONS
 
 SOLVING FOR HEAD 
                                                   Max.-Head-Change                         Max.-Flux-Residual
  Residual-Control   Outer-Iter.   Inner-Iter.     Column Row Layer    Maximum-Head-Change  Column Row Layer    Maximum-Flux-Residual          L2-NORM 
          0                 1           2             3    7     1       0.1348953547E-01       4    5    1         0.5191376976E+00      0.2295153849E+01
          0                 2           2             4    7     1      -0.1859510777E+01       5    8    1        -0.9989025405E+02      0.2446646664E+03
          0                 3           2             4    7     1       0.9460176819E-01       4    8    1         0.5226504492E+01      0.1274733076E+02
          0                 4           2             4    7     1      -0.3764354570E-02       4    8    1        -0.2137844182E+00      0.5472909108E+00
          0                 5           1             4   13     1      -0.1057940576E-03       4   13    1        -0.6396305062E-02      0.1391668617E-01
          0                 6           1             4   13     1       0.4146829161E-05       4   13    1         0.2579489001E-03      0.4919078310E-03

    ------------------------------------------------
       NWT REQUIRED            6 OUTER ITERATIONS 
       AND A TOTAL OF         10 INNER ITERATIONS.
    ------------------------------------------------

 NO OUTPUT CONTROL FOR STRESS PERIOD   17   TIME STEP    1
 
 SOLVING FOR HEAD 
                                                   Max.-Head-Change                         Max.-Flux-Residual
  Residual-Control   Outer-Iter.   Inner-Iter.     Column Row Layer    Maximum-Head-Change  Column Row Layer    Maximum-Flux-Residual          L2-NORM 
          0                 1           2             5    8     1       0.3095246968E-01       5    8    1         0.1724911596E+01      0.3972095288E+01
          0                 2           2             7   13     1      -0.4455153764E-02       7   13    1        -0.2472498187E+00      0.4678149834E+00
          0                 3           2             7   13     1       0.3032970240E-03       7   13    1         0.1730281609E-01      0.3274448457E-01
          0                 4           1             7   13     1      -0.1206251045E-04       7   13    1        -0.7073356353E-03      0.1339072316E-02

    ------------------------------------------------
       NWT REQUIRED            4 OUTER ITERATIONS 
       AND A TOTAL OF          7 INNER ITERATIONS.
    ------------------------------------------------

 NO OUTPUT CONTROL FOR STRESS PERIOD   17   TIME STEP    2
 
 SOLVING FOR HEAD 
                                                   Max.-Head-Change                         Max.-Flux-Residual
  Residual-Control   Outer-Iter.   Inner-Iter.     Column Row Layer    Maximum-Head-Change  Column Row Layer    Maximum-Flux-Residual          L2-NORM 
          0                 1           2             5    6     1       0.2891472369E-01       5    8    1         0.1608498080E+01      0.3726933466E+01
          0                 2           2             5    6     1      -0.2812601205E-02       5    8    1        -0.1608527769E+00      0.3721063450E+00
          0                 3           2             5    6     1       0.1915279784E-03       5    8    1         0.1125967848E-01      0.2604340437E-01
          0                 4           1             5    6     1      -0.7621202153E-05       5    8    1        -0.4605290469E-03      0.1064967303E-02

    ------------------------------------------------
       NWT REQUIRED            4 OUTER ITERATIONS 
       AND A TOTAL OF          7 INNER ITERATIONS.
    ------------------------------------------------

 NO OUTPUT CONTROL FOR STRESS PERIOD   17   TIME STEP    3
 
 SOLVING FOR HEAD 
                                                   Max.-Head-Change                         Max.-Flux-Residual
  Residual-Control   Outer-Iter.   Inner-Iter.     Column Row Layer    Maximum-Head-Change  Column Row Layer    Maximum-Flux-Residual          L2-NORM 
          0                 1           2             5    6     1       0.2710629825E-01       5    6    1         0.1502779741E+01      0.3507457740E+01
          0                 2           2             5    6     1      -0.2636692341E-02       5    6    1        -0.1502771917E+00      0.3507502557E+00
          0                 3           2             5    6     1       0.1795490885E-03       5    6    1         0.1051941554E-01      0.2454901236E-01
          0                 4           1             5    6     1      -0.7144422610E-05       5    6    1        -0.4302446453E-03      0.1003869499E-02

    ------------------------------------------------
       NWT REQUIRED            4 OUTER ITERATIONS 
       AND A TOTAL OF          7 INNER ITERATIONS.
    ------------------------------------------------

 NO OUTPUT CONTROL FOR STRESS PERIOD   17   TIME STEP    4
 
 SOLVING FOR HEAD 
                                                   Max.-Head-Change                         Max.-Flux-Residual
  Residual-Control   Outer-Iter.   Inner-Iter.     Column Row Layer    Maximum-Head-Change  Column Row Layer    Maximum-Flux-Residual          L2-NORM 
          0                 1           2             5    6     1       0.2542576760E-01       5    6    1         0.1408782788E+01      0.3304899159E+01
          0                 2           2             5    6     1      -0.2473224052E-02       5    6    1        -0.1408776090E+00      0.3304553596E+00
          0                 3           2             5    6     1       0.1684174883E-03       5    6    1         0.9861443408E-02      0.2312890516E-01
          0                 4           1             5    6     1      -0.6701485976E-05       5    6    1        -0.4033335620E-03      0.9457703983E-03

    ------------------------------------------------
       NWT REQUIRED            4 OUTER ITERATIONS 
       AND A TOTAL OF          7 INNER ITERATIONS.
    ------------------------------------------------

 NO OUTPUT CONTROL FOR STRESS PERIOD   17   TIME STEP    5
 
 SOLVING FOR HEAD 
                                                   Max.-Head-Change                         Max.-Flux-Residual
  Residual-Control   Outer-Iter.   Inner-Iter.     Column Row Layer    Maximum-Head-Change  Column Row Layer    Maximum-Flux-Residual          L2-NORM 
          0                 1           2             5    6     1       0.2386331433E-01       5    6    1         0.1321433595E+01      0.3117086141E+01
          0                 2           2             5    6     1      -0.2321503765E-02       5    6    1        -0.1321427683E+00      0.3115343044E+00
          0                 3           2             5    6     1       0.1580858856E-03       5    6    1         0.9250003447E-02      0.2180482648E-01
          0                 4           1             5    6     1      -0.6290381663E-05       5    6    1        -0.3783256482E-03      0.8916304700E-03

    ------------------------------------------------
       NWT REQUIRED            4 OUTER ITERATIONS 
       AND A TOTAL OF          7 INNER ITERATIONS.
    ------------------------------------------------

 NO OUTPUT CONTROL FOR STRESS PERIOD   17   TIME STEP    6
 
 SOLVING FOR HEAD 
                                                   Max.-Head-Change                         Max.-Flux-Residual
  Residual-Control   Outer-Iter.   Inner-Iter.     Column Row Layer    Maximum-Head-Change  Column Row Layer    Maximum-Flux-Residual          L2-NORM 
          0                 1           2             5    6     1       0.2240937422E-01       5    6    1         0.1240225670E+01      0.2942982521E+01
          0                 2           2             5    6     1      -0.2180706509E-02       5    6    1        -0.1241682869E+00      0.2939742103E+00
          0                 3           2             5    6     1       0.1484980606E-03       5    6    1         0.8691785770E-02      0.2057591778E-01
          0                 4           1             5    6     1      -0.5908872972E-05       5    6    1        -0.3554945270E-03      0.8413797808E-03

    ------------------------------------------------
       NWT REQUIRED            4 OUTER ITERATIONS 
       AND A TOTAL OF          7 INNER ITERATIONS.
    ------------------------------------------------

 NO OUTPUT CONTROL FOR STRESS PERIOD   17   TIME STEP    7
 
 SOLVING FOR HEAD 
                                                   Max.-Head-Change                         Max.-Flux-Residual
  Residual-Control   Outer-Iter.   Inner-Iter.     Column Row Layer    Maximum-Head-Change  Column Row Layer    Maximum-Flux-Residual          L2-NORM 
          0                 1           2             5    6     1       0.2103698561E-01       5    6    1         0.1164624495E+01      0.2781814388E+01
          0                 2           2             5    6     1      -0.2046322294E-02       5    6    1        -0.1164622718E+00      0.2781608900E+00
          0                 3           2             5    6     1       0.1393469924E-03       5    6    1         0.8152364418E-02      0.1946935237E-01
          0                 4           1             5    6     1      -0.5544743483E-05       5    6    1        -0.3334321573E-03      0.7961646680E-03

    ------------------------------------------------
       NWT REQUIRED            4 OUTER ITERATIONS 
       AND A TOTAL OF          7 INNER ITERATIONS.
    ------------------------------------------------

 NO OUTPUT CONTROL FOR STRESS PERIOD   17   TIME STEP    8
 
 SOLVING FOR HEAD 
                                                   Max.-Head-Change                         Max.-Flux-Residual
  Residual-Control   Outer-Iter.   Inner-Iter.     Column Row Layer    Maximum-Head-Change  Column Row Layer    Maximum-Flux-Residual          L2-NORM 
          0                 1           2             5    6     1       0.1976068864E-01       5    6    1         0.1093332671E+01      0.2632058785E+01
          0                 2           2             5    6     1      -0.1922173452E-02       5    6    1        -0.1093330962E+00      0.2631875766E+00
          0                 3           2             5    6     1       0.1308929127E-03       5    6    1         0.7653321653E-02      0.1842146264E-01
          0                 4           1             5    6     1      -0.5208348003E-05       5    6    1        -0.3130212942E-03      0.7533288673E-03

    ------------------------------------------------
       NWT REQUIRED            4 OUTER ITERATIONS 
       AND A TOTAL OF          7 INNER ITERATIONS.
    ------------------------------------------------

 NO OUTPUT CONTROL FOR STRESS PERIOD   17   TIME STEP    9
 
 SOLVING FOR HEAD 
                                                   Max.-Head-Change                         Max.-Flux-Residual
  Residual-Control   Outer-Iter.   Inner-Iter.     Column Row Layer    Maximum-Head-Change  Column Row Layer    Maximum-Flux-Residual          L2-NORM 
          0                 1           2             5    6     1       0.1857279258E-01       5    6    1         0.1027008816E+01      0.2492932372E+01
          0                 2           2             4    7     1      -0.1914666051E+01       5    6    1        -0.1001027007E+03      0.2450690420E+03
          0                 3           2             4    7     1       0.1862112377E+00       4    7    1         0.1013173212E+02      0.1867959513E+02
          0                 4           2             4    7     1      -0.1268121119E-01       4    7    1        -0.7185080203E+00      0.9750396188E+00
          0                 5           1             4    7     1       0.5045911909E-03       4    7    1         0.2975259749E-01      0.3325469762E-01
          0                 6           1             4    7     1      -0.6221836277E-05       4    7    1        -0.3815567195E-03      0.6407095056E-03

    ------------------------------------------------
       NWT REQUIRED            6 OUTER ITERATIONS 
       AND A TOTAL OF         10 INNER ITERATIONS.
    ------------------------------------------------

 NO OUTPUT CONTROL FOR STRESS PERIOD   17   TIME STEP   10
 
 SOLVING FOR HEAD 
                                                   Max.-Head-Change                         Max.-Flux-Residual
  Residual-Control   Outer-Iter.   Inner-Iter.     Column Row Layer    Maximum-Head-Change  Column Row Layer    Maximum-Flux-Residual          L2-NORM 
          0                 1           2             5    8     1       0.7025458905E-01       5    8    1         0.3881934133E+01      0.8383585401E+01
          0                 2           2             5    8     1      -0.6833768291E-02       5    8    1        -0.3881873440E+00      0.8736953557E+00
          0                 3           2             5    8     1       0.4653551449E-03       5    8    1         0.2717318342E-01      0.6115953029E-01
          0                 4           1             5    8     1      -0.1851691302E-04       5    8    1        -0.1111384489E-02      0.2501672644E-02

    ------------------------------------------------
       NWT REQUIRED            4 OUTER ITERATIONS 
       AND A TOTAL OF          7 INNER ITERATIONS.
    ------------------------------------------------

 NO OUTPUT CONTROL FOR STRESS PERIOD   17   TIME STEP   11
 
 SOLVING FOR HEAD 
                                                   Max.-Head-Change                         Max.-Flux-Residual
  Residual-Control   Outer-Iter.   Inner-Iter.     Column Row Layer    Maximum-Head-Change  Column Row Layer    Maximum-Flux-Residual          L2-NORM 
          0                 1           2             5    8     1       0.6612905652E-01       5    8    1         0.3650880947E+01      0.7943474949E+01
          0                 2           2             5    8     1      -0.6432477491E-02       5    8    1        -0.3650828001E+00      0.7943251747E+00
          0                 3           2             5    8     1       0.4380285595E-03       5    8    1         0.2555585382E-01      0.5560288032E-01
          0                 4           1             5    8     1      -0.1742976079E-04       5    8    1        -0.1045247144E-02      0.2274167125E-02

    ------------------------------------------------
       NWT REQUIRED            4 OUTER ITERATIONS 
       AND A TOTAL OF          7 INNER ITERATIONS.
    ------------------------------------------------

 NO OUTPUT CONTROL FOR STRESS PERIOD   17   TIME STEP   12
 
 SOLVING FOR HEAD 
                                                   Max.-Head-Change                         Max.-Flux-Residual
  Residual-Control   Outer-Iter.   Inner-Iter.     Column Row Layer    Maximum-Head-Change  Column Row Layer    Maximum-Flux-Residual          L2-NORM 
          0                 1           2             5    8     1       0.6229869778E-01       5    8    1         0.3436495727E+01      0.7536823751E+01
          0                 2           2             5    8     1      -0.6059897925E-02       5    8    1        -0.3436449650E+00      0.7536624478E+00
          0                 3           2             5    8     1       0.4126572372E-03       5    8    1         0.2405520170E-01      0.5275649098E-01
          0                 4           1             5    8     1      -0.1642001460E-04       5    8    1        -0.9838589096E-03      0.2157738416E-02

    ------------------------------------------------
       NWT REQUIRED            4 OUTER ITERATIONS 
       AND A TOTAL OF          7 INNER ITERATIONS.
    ------------------------------------------------

 NO OUTPUT CONTROL FOR STRESS PERIOD   17   TIME STEP   13
 
 SOLVING FOR HEAD 
                                                   Max.-Head-Change                         Max.-Flux-Residual
  Residual-Control   Outer-Iter.   Inner-Iter.     Column Row Layer    Maximum-Head-Change  Column Row Layer    Maximum-Flux-Residual          L2-NORM 
          0                 1           2             5    8     1       0.5874008796E-01       5    8    1         0.3237446429E+01      0.7157897638E+01
          0                 2           2             5    8     1      -0.5713750455E-02       5    8    1        -0.3237406090E+00      0.7157719430E+00
          0                 3           2             5    8     1       0.3890857973E-03       5    8    1         0.2266189075E-01      0.5010413965E-01
          0                 4           1             5    8     1      -0.1548208535E-04       5    8    1        -0.9268724434E-03      0.2049260622E-02

    ------------------------------------------------
       NWT REQUIRED            4 OUTER ITERATIONS 
       AND A TOTAL OF          7 INNER ITERATIONS.
    ------------------------------------------------

 NO OUTPUT CONTROL FOR STRESS PERIOD   17   TIME STEP   14
 
 SOLVING FOR HEAD 
                                                   Max.-Head-Change                         Max.-Flux-Residual
  Residual-Control   Outer-Iter.   Inner-Iter.     Column Row Layer    Maximum-Head-Change  Column Row Layer    Maximum-Flux-Residual          L2-NORM 
          0                 1           2             5    8     1       0.5543184716E-01       5    8    1         0.3052518503E+01      0.6804515969E+01
          0                 2           2             5    8     1      -0.5391955550E-02       5    8    1        -0.3052482889E+00      0.6804356037E+00
          0                 3           2             5    8     1       0.3671726886E-03       5    8    1         0.2136742315E-01      0.4763057977E-01
          0                 4           1             5    8     1      -0.1461014275E-04       5    8    1        -0.8739286698E-03      0.1948091432E-02

    ------------------------------------------------
       NWT REQUIRED            4 OUTER ITERATIONS 
       AND A TOTAL OF          7 INNER ITERATIONS.
    ------------------------------------------------

 NO OUTPUT CONTROL FOR STRESS PERIOD   17   TIME STEP   15
 
 SOLVING FOR HEAD 
                                                   Max.-Head-Change                         Max.-Flux-Residual
  Residual-Control   Outer-Iter.   Inner-Iter.     Column Row Layer    Maximum-Head-Change  Column Row Layer    Maximum-Flux-Residual          L2-NORM 
          0                 1           2             5    8     1       0.5235430897E-01       5    8    1         0.2880595560E+01      0.6474678287E+01
          0                 2           2             5    8     1      -0.5092601399E-02       5    8    1        -0.2880564343E+00      0.6472422604E+00
          0                 3           2             5    8     1       0.3467877212E-03       5    8    1         0.2016398881E-01      0.4530703668E-01
          0                 4           1             5    8     1      -0.1379900629E-04       5    8    1        -0.8247081564E-03      0.1853059141E-02

    ------------------------------------------------
       NWT REQUIRED            4 OUTER ITERATIONS 
       AND A TOTAL OF          7 INNER ITERATIONS.
    ------------------------------------------------

 NO OUTPUT CONTROL FOR STRESS PERIOD   17   TIME STEP   16
 
 SOLVING FOR HEAD 
                                                   Max.-Head-Change                         Max.-Flux-Residual
  Residual-Control   Outer-Iter.   Inner-Iter.     Column Row Layer    Maximum-Head-Change  Column Row Layer    Maximum-Flux-Residual          L2-NORM 
          0                 1           2             5    6     1       0.4956845158E-01       5    8    1         0.2720673653E+01      0.6166744072E+01
          0                 2           2             5    6     1      -0.4821624248E-02       5    8    1        -0.2720646061E+00      0.6166617031E+00
          0                 3           2             5    6     1       0.3283350764E-03       5    8    1         0.1904455693E-01      0.4316638851E-01
          0                 4           1             5    6     1      -0.1306473834E-04       5    8    1        -0.7789233409E-03      0.1765506203E-02

    ------------------------------------------------
       NWT REQUIRED            4 OUTER ITERATIONS 
       AND A TOTAL OF          7 INNER ITERATIONS.
    ------------------------------------------------

 NO OUTPUT CONTROL FOR STRESS PERIOD   17   TIME STEP   17
 
 SOLVING FOR HEAD 
                                                   Max.-Head-Change                         Max.-Flux-Residual
  Residual-Control   Outer-Iter.   Inner-Iter.     Column Row Layer    Maximum-Head-Change  Column Row Layer    Maximum-Flux-Residual          L2-NORM 
          0                 1           2             5    6     1       0.4705843446E-01       5    6    1         0.2576176259E+01      0.5878884549E+01
          0                 2           2             5    6     1      -0.4577470868E-02       5    6    1        -0.2576154743E+00      0.5878770080E+00
          0                 3           2             5    6     1       0.3117091053E-03       5    6    1         0.1803311135E-01      0.4115144754E-01
          0                 4           1             5    6     1      -0.1240317566E-04       5    6    1        -0.7375551843E-03      0.1683093110E-02

    ------------------------------------------------
       NWT REQUIRED            4 OUTER ITERATIONS 
       AND A TOTAL OF          7 INNER ITERATIONS.
    ------------------------------------------------

 NO OUTPUT CONTROL FOR STRESS PERIOD   17   TIME STEP   18
 
 SOLVING FOR HEAD 
                                                   Max.-Head-Change                         Max.-Flux-Residual
  Residual-Control   Outer-Iter.   Inner-Iter.     Column Row Layer    Maximum-Head-Change  Column Row Layer    Maximum-Flux-Residual          L2-NORM 
          0                 1           2             5    6     1       0.4470828097E-01       5    6    1         0.2445728904E+01      0.5609564528E+01
          0                 2           2             4    7     1      -0.1864331293E+01       5    6    1        -0.1002445709E+03      0.2453766342E+03
          0                 3           2             4    7     1       0.1269347088E+00       5    6    1         0.7014988294E+01      0.1726213751E+02
          0                 4           2             4    7     1      -0.5050943889E-02       5    6    1        -0.2868055266E+00      0.7167451528E+00
          0                 5           1             7   13     1       0.9115364749E-04       7   13    1         0.5228249905E-02      0.1140050345E-01

    ------------------------------------------------
       NWT REQUIRED            5 OUTER ITERATIONS 
       AND A TOTAL OF          9 INNER ITERATIONS.
    ------------------------------------------------

 NO OUTPUT CONTROL FOR STRESS PERIOD   17   TIME STEP   19
 
 SOLVING FOR HEAD 
                                                   Max.-Head-Change                         Max.-Flux-Residual
  Residual-Control   Outer-Iter.   Inner-Iter.     Column Row Layer    Maximum-Head-Change  Column Row Layer    Maximum-Flux-Residual          L2-NORM 
          0                 1           2             5    8     1       0.9604563409E-01       5    8    1         0.5285769299E+01      0.1160226074E+02
          0                 2           2             5    8     1      -0.9342466688E-02       5    8    1        -0.5285662130E+00      0.1185921854E+01
          0                 3           2             5    8     1       0.6361888602E-03       5    8    1         0.3699975245E-01      0.8301301679E-01
          0                 4           1             5    8     1      -0.2531454332E-04       5    8    1        -0.1513291515E-02      0.3395122544E-02

    ------------------------------------------------
       NWT REQUIRED            4 OUTER ITERATIONS 
       AND A TOTAL OF          7 INNER ITERATIONS.
    ------------------------------------------------

 NO OUTPUT CONTROL FOR STRESS PERIOD   17   TIME STEP   20
 
 SOLVING FOR HEAD 
                                                   Max.-Head-Change                         Max.-Flux-Residual
  Residual-Control   Outer-Iter.   Inner-Iter.     Column Row Layer    Maximum-Head-Change  Column Row Layer    Maximum-Flux-Residual          L2-NORM 
          0                 1           2             5    8     1       0.9077246103E-01       5    8    1         0.4991121381E+01      0.1105415406E+02
          0                 2           2             5    8     1      -0.8829548563E-02       5    8    1        -0.4991026606E+00      0.1105262834E+01
          0                 3           2             5    8     1       0.6012608638E-03       5    8    1         0.3493729116E-01      0.7736804664E-01
          0                 4           1             5    8     1      -0.2392472615E-04       5    8    1        -0.1428936773E-02      0.3164310396E-02

    ------------------------------------------------
       NWT REQUIRED            4 OUTER ITERATIONS 
       AND A TOTAL OF          7 INNER ITERATIONS.
    ------------------------------------------------

 NO OUTPUT CONTROL FOR STRESS PERIOD   17   TIME STEP   21
 
 SOLVING FOR HEAD 
                                                   Max.-Head-Change                         Max.-Flux-Residual
  Residual-Control   Outer-Iter.   Inner-Iter.     Column Row Layer    Maximum-Head-Change  Column Row Layer    Maximum-Flux-Residual          L2-NORM 
          0                 1           2             5    8     1       0.8586516912E-01       5    8    1         0.4717100334E+01      0.1054470588E+02
          0                 2           2             5    8     1      -0.8352218067E-02       5    8    1        -0.4717016220E+00      0.1054428282E+01
          0                 3           2             5    8     1       0.5687562773E-03       5    8    1         0.3301920755E-01      0.7380967625E-01
          0                 4           1             5    8     1      -0.2263133917E-04       5    8    1        -0.1350487091E-02      0.3018775439E-02

    ------------------------------------------------
       NWT REQUIRED            4 OUTER ITERATIONS 
       AND A TOTAL OF          7 INNER ITERATIONS.
    ------------------------------------------------

 NO OUTPUT CONTROL FOR STRESS PERIOD   17   TIME STEP   22
 
 SOLVING FOR HEAD 
                                                   Max.-Head-Change                         Max.-Flux-Residual
  Residual-Control   Outer-Iter.   Inner-Iter.     Column Row Layer    Maximum-Head-Change  Column Row Layer    Maximum-Flux-Residual          L2-NORM 
          0                 1           2             5    8     1       0.8129526750E-01       5    8    1         0.4462089013E+01      0.1006878107E+02
          0                 2           2             5    8     1      -0.7907704451E-02       5    8    1        -0.4462014098E+00      0.1006840322E+01
          0                 3           2             5    8     1       0.5384864189E-03       5    8    1         0.3123418322E-01      0.7047856812E-01
          0                 4           1             5    8     1      -0.2142687387E-04       5    8    1        -0.1277479535E-02      0.2882542861E-02

    ------------------------------------------------
       NWT REQUIRED            4 OUTER ITERATIONS 
       AND A TOTAL OF          7 INNER ITERATIONS.
    ------------------------------------------------

 NO OUTPUT CONTROL FOR STRESS PERIOD   17   TIME STEP   23
 
 SOLVING FOR HEAD 
                                                   Max.-Head-Change                         Max.-Flux-Residual
  Residual-Control   Outer-Iter.   Inner-Iter.     Column Row Layer    Maximum-Head-Change  Column Row Layer    Maximum-Flux-Residual          L2-NORM 
          0                 1           2             5    8     1       0.7703672880E-01       5    8    1         0.4224610197E+01      0.9623691931E+01
          0                 2           2             5    8     1      -0.7493475865E-02       5    8    1        -0.4224543060E+00      0.9623353566E+00
          0                 3           2             5    8     1       0.5102788765E-03       5    8    1         0.2957187772E-01      0.6736323166E-01
          0                 4           1             5    8     1      -0.2030447003E-04       5    8    1        -0.1209491199E-02      0.2755129665E-02

    ------------------------------------------------
       NWT REQUIRED            4 OUTER ITERATIONS 
       AND A TOTAL OF          7 INNER ITERATIONS.
    ------------------------------------------------

 NO OUTPUT CONTROL FOR STRESS PERIOD   17   TIME STEP   24
 
 SOLVING FOR HEAD 
                                                   Max.-Head-Change                         Max.-Flux-Residual
  Residual-Control   Outer-Iter.   Inner-Iter.     Column Row Layer    Maximum-Head-Change  Column Row Layer    Maximum-Flux-Residual          L2-NORM 
          0                 1           2             5    8     1       0.7306561855E-01       5    8    1         0.4003306564E+01      0.9207075215E+01
          0                 2           2             5    8     1      -0.7107205407E-02       5    8    1        -0.4003246527E+00      0.9206772834E+00
          0                 3           2             5    8     1       0.4839751928E-03       5    8    1         0.2802279476E-01      0.6444721050E-01
          0                 4           1             5    8     1      -0.1925782233E-04       5    8    1        -0.1146133645E-02      0.2635886059E-02

    ------------------------------------------------
       NWT REQUIRED            4 OUTER ITERATIONS 
       AND A TOTAL OF          7 INNER ITERATIONS.
    ------------------------------------------------

 NO OUTPUT CONTROL FOR STRESS PERIOD   17   TIME STEP   25
 
 SOLVING FOR HEAD 
                                                   Max.-Head-Change                         Max.-Flux-Residual
  Residual-Control   Outer-Iter.   Inner-Iter.     Column Row Layer    Maximum-Head-Change  Column Row Layer    Maximum-Flux-Residual          L2-NORM 
          0                 1           2             5    8     1       0.6936032163E-01       5    8    1         0.3796952844E+01      0.8816762830E+01
          0                 2           2             5    8     1      -0.6746789732E-02       5    8    1        -0.3796898832E+00      0.8816492231E+00
          0                 3           2             5    8     1       0.4594321369E-03       5    8    1         0.2657835458E-01      0.6171528414E-01
          0                 4           1             5    8     1      -0.1828123151E-04       5    8    1        -0.1087055985E-02      0.2524143620E-02

    ------------------------------------------------
       NWT REQUIRED            4 OUTER ITERATIONS 
       AND A TOTAL OF          7 INNER ITERATIONS.
    ------------------------------------------------

 NO OUTPUT CONTROL FOR STRESS PERIOD   17   TIME STEP   26
 
 SOLVING FOR HEAD 
                                                   Max.-Head-Change                         Max.-Flux-Residual
  Residual-Control   Outer-Iter.   Inner-Iter.     Column Row Layer    Maximum-Head-Change  Column Row Layer    Maximum-Flux-Residual          L2-NORM 
          0                 1           2             5    6     1       0.6596158516E-01       5    8    1         0.3604396933E+01      0.8450769275E+01
          0                 2           2             5    6     1      -0.6416194174E-02       5    8    1        -0.3604348005E+00      0.8450526717E+00
          0                 3           2             5    6     1       0.4369197154E-03       5    8    1         0.2523049323E-01      0.5915354453E-01
          0                 4           1             5    6     1      -0.1738540776E-04       5    8    1        -0.1031928398E-02      0.2419360322E-02

    ------------------------------------------------
       NWT REQUIRED            4 OUTER ITERATIONS 
       AND A TOTAL OF          7 INNER ITERATIONS.
    ------------------------------------------------

 NO OUTPUT CONTROL FOR STRESS PERIOD   17   TIME STEP   27
 
 SOLVING FOR HEAD 
                                                   Max.-Head-Change                         Max.-Flux-Residual
  Residual-Control   Outer-Iter.   Inner-Iter.     Column Row Layer    Maximum-Head-Change  Column Row Layer    Maximum-Flux-Residual          L2-NORM 
          0                 1           2             5    6     1       0.6291489572E-01       5    6    1         0.3428144550E+01      0.8107271526E+01
          0                 2           2             4    7     1      -0.1866166319E+01       5    6    1        -0.1003428101E+03      0.2456170512E+03
          0                 3           2             4    7     1       0.1270596517E+00       5    6    1         0.7021893710E+01      0.1727920297E+02
          0                 4           2             4    7     1      -0.5055915511E-02       5    6    1        -0.2870904680E+00      0.7174124469E+00
          0                 5           1             7   13     1       0.9115436983E-04       7   13    1         0.5228282891E-02      0.1139546173E-01

    ------------------------------------------------
       NWT REQUIRED            5 OUTER ITERATIONS 
       AND A TOTAL OF          9 INNER ITERATIONS.
    ------------------------------------------------

 NO OUTPUT CONTROL FOR STRESS PERIOD   17   TIME STEP   28
 
 SOLVING FOR HEAD 
                                                   Max.-Head-Change                         Max.-Flux-Residual
  Residual-Control   Outer-Iter.   Inner-Iter.     Column Row Layer    Maximum-Head-Change  Column Row Layer    Maximum-Flux-Residual          L2-NORM 
          0                 1           2             5    8     1       0.1136682088E+00       5    8    1         0.6238020816E+01      0.1396721291E+02
          0                 2           2             5    8     1      -0.1105660675E-01       5    8    1        -0.6237874869E+00      0.1418096721E+01
          0                 3           2             5    8     1       0.7529159905E-03       5    8    1         0.4366528120E-01      0.9926503877E-01
          0                 4           1             5    8     1      -0.2995922256E-04       5    8    1        -0.1785911848E-02      0.4059809338E-02

    ------------------------------------------------
       NWT REQUIRED            4 OUTER ITERATIONS 
       AND A TOTAL OF          7 INNER ITERATIONS.
    ------------------------------------------------

 NO OUTPUT CONTROL FOR STRESS PERIOD   17   TIME STEP   29
 
 SOLVING FOR HEAD 
                                                   Max.-Head-Change                         Max.-Flux-Residual
  Residual-Control   Outer-Iter.   Inner-Iter.     Column Row Layer    Maximum-Head-Change  Column Row Layer    Maximum-Flux-Residual          L2-NORM 
          0                 1           2             5    8     1       0.1077297315E+00       5    8    1         0.5906874215E+01      0.1336094495E+02
          0                 2           2             5    8     1      -0.1047897601E-01       5    8    1        -0.5906743047E+00      0.1336041408E+01
          0                 3           2             5    8     1       0.7135812715E-03       5    8    1         0.4134734345E-01      0.9352343000E-01
          0                 4           1             5    8     1      -0.2839405823E-04       5    8    1        -0.1691108131E-02      0.3825109966E-02

    ------------------------------------------------
       NWT REQUIRED            4 OUTER ITERATIONS 
       AND A TOTAL OF          7 INNER ITERATIONS.
    ------------------------------------------------

 NO OUTPUT CONTROL FOR STRESS PERIOD   17   TIME STEP   30



 STREAM LISTING     PERIOD     17   STEP       30

 LAYER ROW COL. STREAM  RCH.  FLOW INTO     FLOW TO   FLOW OUT OF   OVRLND.     DIRECT     STREAM       STREAM     STREAM     STREAM   STREAMBED  STREAMBED
                SEG.NO.  NO.  STRM. RCH.    AQUIFER    STRM. RCH.    RUNOFF     PRECIP       ET          HEAD       DEPTH      WIDTH   CONDCTNC.   GRADIENT

   1    1    1     1     1    4.9431E+01  3.3436E-01   4.9097E+01  0.000E+00  0.000E+00  0.000E+00  1.09444E+03  1.395E+00  1.690E+01  7.607E-02  1.465E+00
   1    2    2     1     2    4.9097E+01  5.1808E-01   4.8579E+01  0.000E+00  0.000E+00  0.000E+00  1.08945E+03  1.393E+00  1.685E+01  1.179E-01  1.464E+00
   1    3    3     1     3    4.8579E+01  4.4210E-01   4.8137E+01  0.000E+00  0.000E+00  0.000E+00  1.08381E+03  1.390E+00  1.679E+01  1.007E-01  1.463E+00
   1    3    4     1     4    4.8137E+01  4.0732E-01   4.7729E+01  0.000E+00  0.000E+00  0.000E+00  1.07879E+03  1.387E+00  1.673E+01  9.285E-02  1.462E+00
   1    4    5     2     1    4.5729E+01  3.6899E-01   4.5360E+01  0.000E+00  0.000E+00  0.000E+00  1.07366E+03  1.731E+00  1.200E+01  7.800E-02  1.577E+00
   1    5    6     2     2    4.5360E+01  2.8339E-01   4.5077E+01  0.000E+00  0.000E+00  0.000E+00  1.06823E+03  1.723E+00  1.200E+01  6.000E-02  1.574E+00
   1    6    6     2     3    4.5077E+01  2.8300E-01   4.4794E+01  0.000E+00  0.000E+00  0.000E+00  1.06351E+03  1.717E+00  1.200E+01  6.000E-02  1.572E+00
   1    7    6     2     4    4.4794E+01  2.8261E-01   4.4511E+01  0.000E+00  0.000E+00  0.000E+00  1.05879E+03  1.710E+00  1.200E+01  6.000E-02  1.570E+00
   1    8    6     2     5    4.4511E+01  2.8222E-01   4.4229E+01  0.000E+00  0.000E+00  0.000E+00  1.05406E+03  1.704E+00  1.200E+01  6.000E-02  1.568E+00
   1    3    5     3     1    2.0000E+00  2.8252E-01   1.7175E+00  0.000E+00  0.000E+00  0.000E+00  1.07555E+03  1.909E+00  9.636E+00  7.227E-02  1.955E+00
   1    3    6     3     2    1.7175E+00  2.4905E-01   1.4684E+00  0.000E+00  0.000E+00  0.000E+00  1.07264E+03  1.727E+00  8.909E+00  6.682E-02  1.864E+00
   1    3    7     3     3    1.4684E+00  1.9718E-01   1.2712E+00  0.000E+00  0.000E+00  0.000E+00  1.06987E+03  1.555E+00  8.218E+00  5.547E-02  1.777E+00
   1    4    8     3     4    1.2712E+00  2.2567E-01   1.0456E+00  0.000E+00  0.000E+00  0.000E+00  1.06682E+03  1.364E+00  7.455E+00  6.709E-02  1.682E+00
   1    5    8     3     5    1.0456E+00  1.5790E-01   8.8768E-01  0.000E+00  0.000E+00  0.000E+00  1.06362E+03  1.164E+00  6.655E+00  4.991E-02  1.582E+00
   1    6    8     3     6    8.8768E-01  5.5980E-02   8.3170E-01  0.000E+00  0.000E+00  0.000E+00  1.06158E+03  1.036E+00  6.145E+00  1.844E-02  1.518E+00
   1    5   10     4     1    1.0000E+01  9.0919E-02   9.9091E+00  0.000E+00  0.000E+00  0.000E+00  1.07836E+03  6.368E-01  1.000E+01  2.500E-02  1.212E+00
   1    5    9     4     2    9.9091E+00  1.8158E-01   9.7275E+00  0.000E+00  0.000E+00  0.000E+00  1.07154E+03  6.315E-01  1.000E+01  5.000E-02  1.211E+00
   1    6    8     4     3    9.7275E+00  1.2689E-01   9.6006E+00  0.000E+00  0.000E+00  0.000E+00  1.06381E+03  6.256E-01  1.000E+01  3.500E-02  1.209E+00
   1    6    8     5     1    1.0432E+01  2.2686E-01   1.0205E+01  0.000E+00  0.000E+00  0.000E+00  1.05868E+03  6.790E-01  1.542E+01  6.166E-02  1.226E+00
   1    7    7     5     2    1.0205E+01  2.7894E-01   9.9265E+00  0.000E+00  0.000E+00  0.000E+00  1.05417E+03  6.732E-01  1.519E+01  7.594E-02  1.224E+00
   1    8    7     5     3    9.9265E+00  1.9221E-01   9.7343E+00  0.000E+00  0.000E+00  0.000E+00  1.04992E+03  6.676E-01  1.497E+01  5.241E-02  1.223E+00
   1    8    6     5     4    9.7343E+00  1.3577E-01   9.5985E+00  0.000E+00  0.000E+00  0.000E+00  1.04691E+03  6.637E-01  1.482E+01  3.706E-02  1.221E+00
   1    9    6     6     1    5.3828E+01  2.9588E-01   5.3532E+01  0.000E+00  0.000E+00  0.000E+00  1.04466E+03  1.931E+00  1.200E+01  6.000E-02  1.644E+00
   1   10    7     6     2    5.3532E+01  2.9550E-01   5.3236E+01  0.000E+00  0.000E+00  0.000E+00  1.04011E+03  1.925E+00  1.200E+01  6.000E-02  1.642E+00
   1   11    7     6     3    5.3236E+01  2.9511E-01   5.2941E+01  0.000E+00  0.000E+00  0.000E+00  1.03555E+03  1.919E+00  1.200E+01  6.000E-02  1.640E+00
   1   12    7     6     4    5.2941E+01  2.9473E-01   5.2646E+01  0.000E+00  0.000E+00  0.000E+00  1.03100E+03  1.912E+00  1.200E+01  6.000E-02  1.637E+00
   1   13    7     6     5    5.2646E+01  2.1648E-02   5.2625E+01  0.000E+00  0.000E+00  0.000E+00  1.02782E+03  1.909E+00  1.200E+01  2.400E-02  3.007E-01
   1   14    9     7     1    1.5000E+02  1.3419E+00   1.4866E+02  0.000E+00  0.000E+00  0.000E+00  1.03987E+03  2.288E+00  5.529E+01  5.593E-01  7.998E-01
   1   13    8     7     2    1.4866E+02  1.8773E+00   1.4678E+02  0.000E+00  0.000E+00  0.000E+00  1.03478E+03  2.279E+00  5.526E+01  6.148E-01  1.018E+00
   1   13    7     7     3    1.4678E+02  1.5488E+00   1.4523E+02  0.000E+00  0.000E+00  0.000E+00  1.02969E+03  2.270E+00  5.522E+01  5.584E-01  9.245E-01
   1   13    6     8     1    1.9786E+02  1.1109E+00   1.9675E+02  0.000E+00  0.000E+00  0.000E+00  1.02500E+03  3.122E+00  4.527E+01  4.613E-01  8.028E-01
   1   13    5     8     2    1.9675E+02  3.0665E-01   1.9644E+02  0.000E+00  0.000E+00  0.000E+00  1.01874E+03  3.118E+00  4.520E+01  4.607E-01  2.219E-01
   1   13    4     8     3    1.9644E+02 -2.0900E+00   1.9853E+02  0.000E+00  0.000E+00  0.000E+00  1.01250E+03  3.123E+00  4.528E+01  4.614E+00 -1.510E-01
   1   13    3     8     4    1.9853E+02 -3.4735E+00   2.0200E+02  0.000E+00  0.000E+00  0.000E+00  1.00626E+03  3.139E+00  4.552E+01  4.639E+00 -2.496E-01
   1   13    2     8     5    2.0200E+02 -2.5408E+00   2.0454E+02  0.000E+00  0.000E+00  0.000E+00  1.00003E+03  3.157E+00  4.577E+01  4.665E+00 -1.816E-01
   1   13    1     8     6    2.0454E+02 -1.9953E+00   2.0654E+02  0.000E+00  0.000E+00  0.000E+00  9.95045E+02  3.170E+00  4.597E+01  2.810E+00 -2.367E-01
   1    8    6     9     1    4.4264E-07  0.0000E+00   4.4264E-07  0.000E+00  0.000E+00  0.000E+00  1.07875E+03  7.379E-05  4.000E+00  0.000E+00  1.000E+00
   1    8    5     9     2    4.4264E-07  0.0000E+00   4.4264E-07  0.000E+00  0.000E+00  0.000E+00  1.07825E+03  7.379E-05  4.000E+00  0.000E+00  1.000E+00





UNSATURATED ZONE PACKAGE VOLUMETRIC BUDGET FOR  TIME STEP    30 STRESS PERIOD   17
  ------------------------------------------------------------------------------



     CUMULATIVE VOLUMES      L**3       RATES FOR THIS TIME STEP      L**3/T
     ------------------                 ------------------------

           IN:                                      IN:
           ---                                      ---
        INFILTRATION =  2862723099.5187          INFILTRATION =           0.8475

          OUT:                                     OUT:
          ----                                     ----
              UZF ET =   450659504.9122                UZF ET =           4.5675
        UZF RECHARGE =  1862092798.7207          UZF RECHARGE =       0.0000E+00

            IN - OUT =   549970795.8859              IN - OUT =          -3.7200

          STORAGE:                                 STORAGE:
          --------                                 --------
      STORAGE CHANGE =   550658065.9808        STORAGE CHANGE =          -3.7200

 PERCENT DISCREPANCY IS DIFFERENCE BETWEEN IN-OUT MINUS CHANGE IN STORAGE
 DIVIDED BY THE AVERAGE OF IN AND OUT TIMES 100

 PERCENT DISCREPANCY =          -0.01     PERCENT DISCREPANCY =           0.00






1
  VOLUMETRIC BUDGET FOR AGRICULTURAL FIELDS AT  END OF TIME STEP   30, STRESS PERIOD  17
  ------------------------------------------------------------------------------

     CUMULATIVE VOLUMES      L**3       RATES FOR THIS TIME STEP      L**3/T
     ------------------                 ------------------------

           IN:                                      IN:
           ---                                      ---
               AG WELLS  =  2461650688.0000                 AG WELLS  =       1.1066E-07
      DIVERSION SEGMENTS =   365341248.0000        DIVERSION SEGMENTS =       4.4264E-07
       IRRIGATION PONDS  =           0.0000         IRRIGATION PONDS  =           0.0000
           GW IRRIGATION =           0.0000             GW IRRIGATION =           0.0000
           SW IRRIGATION =           0.0000             SW IRRIGATION =           0.0000
        SYSTEM LOSSES GW =           0.0000          SYSTEM LOSSES GW =           0.0000
        SYSTEM LOSSES SW =           0.0000          SYSTEM LOSSES SW =           0.0000

                TOTAL IN =  2826991872.0000                  TOTAL IN =       5.5330E-07

          OUT:                                     OUT:
          ----                                     ----
               AG WELLS  =           0.0000                 AG WELLS  =           0.0000
      DIVERSION SEGMENTS =           0.0000        DIVERSION SEGMENTS =           0.0000
       IRRIGATION PONDS  =           0.0000         IRRIGATION PONDS  =           0.0000
           GW IRRIGATION =  2461650688.0000             GW IRRIGATION =       1.1066E-07
           SW IRRIGATION =   365348448.0000             SW IRRIGATION =       4.4265E-07
        SYSTEM LOSSES GW =           0.0000          SYSTEM LOSSES GW =           0.0000
        SYSTEM LOSSES SW =           0.0000          SYSTEM LOSSES SW =           0.0000

               TOTAL OUT =  2826999040.0000                 TOTAL OUT =       5.5331E-07

                IN - OUT =       -7168.0000                  IN - OUT =      -8.8107E-12

     PERCENT DISCREPANCY =          -0.00         PERCENT DISCREPANCY =          -0.00



1
  VOLUMETRIC BUDGET FOR ENTIRE MODEL AT END OF TIME STEP   30, STRESS PERIOD  17
  ------------------------------------------------------------------------------

     CUMULATIVE VOLUMES      L**3       RATES FOR THIS TIME STEP      L**3/T
     ------------------                 ------------------------

           IN:                                      IN:
           ---                                      ---
             STORAGE     =  2708350208.0000               STORAGE     =          24.8869
       CONSTANT HEAD     =           0.0000         CONSTANT HEAD     =           0.0000
     HEAD DEP BOUNDS     =    12051684.0000       HEAD DEP BOUNDS     =           0.2862
      STREAM LEAKAGE     =   512831040.0000        STREAM LEAKAGE     =          12.9921
        UZF RECHARGE     =  1862092672.0000          UZF RECHARGE     =           0.0000
               GW ET     =           0.0000                 GW ET     =           0.0000
     SURFACE LEAKAGE     =           0.0000       SURFACE LEAKAGE     =           0.0000
           AG WELLS      =           0.0000             AG WELLS      =           0.0000

                TOTAL IN =  5095325696.0000                  TOTAL IN =          38.1652

          OUT:                                     OUT:
          ----                                     ----
             STORAGE     =  2178420992.0000               STORAGE     =          27.7546
       CONSTANT HEAD     =           0.0000         CONSTANT HEAD     =           0.0000
     HEAD DEP BOUNDS     =    12270731.0000       HEAD DEP BOUNDS     =           0.2947
      STREAM LEAKAGE     =   441594368.0000        STREAM LEAKAGE     =          10.0996
        UZF RECHARGE     =           0.0000          UZF RECHARGE     =           0.0000
               GW ET     =     1313325.8750                 GW ET     =       1.6244E-02
     SURFACE LEAKAGE     =           0.0000       SURFACE LEAKAGE     =           0.0000
           AG WELLS      =  2461650688.0000             AG WELLS      =       1.1066E-07

               TOTAL OUT =  5095249920.0000                 TOTAL OUT =          38.1651

                IN - OUT =       75776.0000                  IN - OUT =       1.9073E-05

     PERCENT DISCREPANCY =           0.00         PERCENT DISCREPANCY =           0.00






         TIME SUMMARY AT END OF TIME STEP   30 IN STRESS PERIOD   17
                    SECONDS     MINUTES      HOURS       DAYS        YEARS
                    -----------------------------------------------------------
   TIME STEP LENGTH  87667.      1461.1      24.352      1.0147     2.77799E-03
 STRESS PERIOD TIME 2.63000E+06  43833.      730.56      30.440     8.33397E-02
         TOTAL TIME 4.21664E+07 7.02774E+05  11713.      488.04      1.3362    
1
1
                            STRESS PERIOD NO.   18, LENGTH =   2630000.    
                            -----------------------------------------------

                              NUMBER OF TIME STEPS =    30

                               MULTIPLIER FOR DELT =     1.000

                            INITIAL TIME STEP SIZE =   87666.66    

 REUSING NON-PARAMETER GHB CELLS FROM LAST STRESS PERIOD

      2 GHB CELLS

 REUSING STREAM SEGMENT DATA FROM LAST STRESS PERIOD



            AREAL INFILTRATION RATE
 READING ON UNIT   19 WITH FORMAT: (FREE)              

            1           2           3           4           5           6           7           8           9          10
 ........................................................................................................................
   1   1.0000E-10  2.0000E-10   0.000       0.000       0.000       0.000       0.000       0.000       0.000       0.000    
   2   2.0000E-10  1.0000E-10  2.0000E-10   0.000       0.000      8.0000E-10  8.0000E-10  5.0000E-10   0.000       0.000    
   3    0.000      5.0000E-10  1.0000E-10  1.0000E-10  8.0000E-10  8.0000E-10  5.0000E-10  5.0000E-10   0.000       0.000    
   4   8.0000E-10  5.0000E-10  1.0000E-10  1.0000E-10  1.0000E-10  1.0000E-10  1.0000E-10  1.0000E-10  2.0000E-10   0.000    
   5   8.0000E-10  5.0000E-10  1.0000E-10  1.0000E-10  1.0000E-10  1.0000E-10  1.0000E-10  1.0000E-10  1.0000E-10  1.0000E-10
   6   8.0000E-10  5.0000E-10  5.0000E-10  2.0000E-10  2.0000E-10  1.0000E-10  1.0000E-10  1.0000E-10  1.0000E-10  5.0000E-10
   7   8.0000E-10  5.0000E-10  5.0000E-10  2.0000E-10  2.0000E-10  1.0000E-10  1.0000E-10  2.0000E-10  2.0000E-10   0.000    
   8    0.000      5.0000E-10  5.0000E-10  2.0000E-10  2.0000E-10  1.0000E-10  1.0000E-10  2.0000E-10  5.0000E-10   0.000    
   9    0.000      5.0000E-10  5.0000E-10  2.0000E-10  2.0000E-10  1.0000E-10  1.0000E-10  2.0000E-10  5.0000E-10   0.000    
  10    0.000      5.0000E-10  5.0000E-10  2.0000E-10  2.0000E-10  1.0000E-10  1.0000E-10  2.0000E-10  5.0000E-10  8.0000E-10
  11    0.000      1.0000E-10  1.0000E-10  1.0000E-10  1.0000E-10  1.0000E-10  1.0000E-10  2.0000E-10  5.0000E-10   0.000    
  12   1.0000E-10  1.0000E-10  1.0000E-10  1.0000E-10  1.0000E-10  1.0000E-10  1.0000E-10  1.0000E-10  2.0000E-10   0.000    
  13   1.0000E-10  1.0000E-10  2.0000E-10  2.0000E-10  2.0000E-10  2.0000E-10  2.0000E-10  1.0000E-10  1.0000E-10   0.000    
  14    0.000      2.0000E-10  5.0000E-10  5.0000E-10  5.0000E-10  5.0000E-10  5.0000E-10  2.0000E-10  1.0000E-10   0.000    
  15    0.000       0.000      8.0000E-10  8.0000E-10  8.0000E-10  8.0000E-10   0.000       0.000       0.000       0.000    

                  ET RATE =  5.000000E-08

 USING ET EXTINCTION DEPTH FROM PREVIOUS STRESS PERIOD. CURRENT PERIOD IS:      18

 USING EXTINCTION WATER CONTENT FROM PREVIOUS STRESS PERIOD. CURRENT PERIOD IS:      18

 USING AIR ENTRY PRESSURE FROM PREVIOUS STRESS PERIOD. CURRENT PERIOD IS:      18

 USING ROOT PRESSURE HEAD FROM PREVIOUS STRESS PERIOD. CURRENT PERIOD IS:      18

 USING ROOT ACTIVITY FROM PREVIOUS STRESS PERIOD. CURRENT PERIOD IS:      18

 PROCESSING AG STRESS PERIOD DATA

 READING AG STRESS PERIOD DATA

 READING IRRIGATION SEGMENT

 READING IRRIGATION WELL

 READING SUPPLEMENTAL WELL

 NO IRRPOND OR REUSING IRRPOND DATA FROM LAST STRESS PERIOD

 END PROCESSING AG STRESS PERIOD DATA OPTIONS
 
 SOLVING FOR HEAD 
                                                   Max.-Head-Change                         Max.-Flux-Residual
  Residual-Control   Outer-Iter.   Inner-Iter.     Column Row Layer    Maximum-Head-Change  Column Row Layer    Maximum-Flux-Residual          L2-NORM 
          0                 1           2             5    8     1       0.1021933379E+00       5    8    1         0.5598281402E+01      0.1279512587E+02
          0                 2           2             5    8     1      -0.9940455195E-02       5    8    1        -0.5598163654E+00      0.1279462301E+01
          0                 3           2             5    8     1       0.6769098151E-03       5    8    1         0.3918727425E-01      0.8956258892E-01
          0                 4           1             5    8     1      -0.2693486770E-04       5    8    1        -0.1602761239E-02      0.3663098462E-02

    ------------------------------------------------
       NWT REQUIRED            4 OUTER ITERATIONS 
       AND A TOTAL OF          7 INNER ITERATIONS.
    ------------------------------------------------

 NO OUTPUT CONTROL FOR STRESS PERIOD   18   TIME STEP    1
 
 SOLVING FOR HEAD 
                                                   Max.-Head-Change                         Max.-Flux-Residual
  Residual-Control   Outer-Iter.   Inner-Iter.     Column Row Layer    Maximum-Head-Change  Column Row Layer    Maximum-Flux-Residual          L2-NORM 
          0                 1           2             5    8     1       0.9702886942E-01       5    8    1         0.5310575168E+01      0.1226305059E+02
          0                 2           2             5    8     1      -0.9438110067E-02       5    8    1        -0.5310469138E+00      0.1226260113E+01
          0                 3           2             5    8     1       0.6427018095E-03       5    8    1         0.3717340069E-01      0.8583841593E-01
          0                 4           1             5    8     1      -0.2557369958E-04       5    8    1        -0.1520393736E-02      0.3510779349E-02

    ------------------------------------------------
       NWT REQUIRED            4 OUTER ITERATIONS 
       AND A TOTAL OF          7 INNER ITERATIONS.
    ------------------------------------------------

 NO OUTPUT CONTROL FOR STRESS PERIOD   18   TIME STEP    2
 
 SOLVING FOR HEAD 
                                                   Max.-Head-Change                         Max.-Flux-Residual
  Residual-Control   Outer-Iter.   Inner-Iter.     Column Row Layer    Maximum-Head-Change  Column Row Layer    Maximum-Flux-Residual          L2-NORM 
          0                 1           2             5    8     1       0.9220809429E-01       5    8    1         0.5042199698E+01      0.1176432451E+02
          0                 2           2             5    8     1      -0.8969194815E-02       5    8    1        -0.5042103902E+00      0.1176392237E+01
          0                 3           2             5    8     1       0.6107702758E-03       5    8    1         0.3529483354E-01      0.8234774352E-01
          0                 4           1             5    8     1      -0.2430311512E-04       5    8    1        -0.1443560302E-02      0.3368165860E-02

    ------------------------------------------------
       NWT REQUIRED            4 OUTER ITERATIONS 
       AND A TOTAL OF          7 INNER ITERATIONS.
    ------------------------------------------------

 NO OUTPUT CONTROL FOR STRESS PERIOD   18   TIME STEP    3
 
 SOLVING FOR HEAD 
                                                   Max.-Head-Change                         Max.-Flux-Residual
  Residual-Control   Outer-Iter.   Inner-Iter.     Column Row Layer    Maximum-Head-Change  Column Row Layer    Maximum-Flux-Residual          L2-NORM 
          0                 1           2             5    8     1       0.8770504229E-01       5    8    1         0.4791683410E+01      0.1129641317E+02
          0                 2           2             5    6     1      -0.3102869749E-01       5    8    1        -0.1717824964E+01      0.4033810272E+01
          0                 3           2             4    7     1       0.2433050343E-01       5    8    1         0.1358913093E+01      0.3322746290E+01
          0                 4           2             4    7     1      -0.3713143243E-01       5    8    1        -0.2106392145E+01      0.5158990654E+01
          0                 5           2             4    7     1       0.3564338480E-01       4    7    1         0.2077501828E+01      0.5110188734E+01
          0                 6           2             4    7     1      -0.5617519208E-01       4    7    1        -0.3364918934E+01      0.8242321704E+01
          0                 7           2             4    7     1       0.3816912065E-01       4    7    1         0.2349476304E+01      0.5781309176E+01
          0                 8           2             4    7     1      -0.6264773431E-01       4    7    1        -0.3962377338E+01      0.9706086440E+01
          0                 9           2             4    7     1      -0.5764746063E-02       5    8    1        -0.3646520581E+00      0.8931770673E+00
          0                10           2             4    7     1      -0.5304029828E-03       5    8    1        -0.3355370975E-01      0.8218399219E-01
          0                11           1             4    7     1      -0.4879601626E-04       5    8    1        -0.3087052300E-02      0.7561113844E-02

    ------------------------------------------------
       NWT REQUIRED           11 OUTER ITERATIONS 
       AND A TOTAL OF         21 INNER ITERATIONS.
    ------------------------------------------------

 NO OUTPUT CONTROL FOR STRESS PERIOD   18   TIME STEP    4
 
 SOLVING FOR HEAD 
                                                   Max.-Head-Change                         Max.-Flux-Residual
  Residual-Control   Outer-Iter.   Inner-Iter.     Column Row Layer    Maximum-Head-Change  Column Row Layer    Maximum-Flux-Residual          L2-NORM 
          0                 1           2             5    8     1       0.8621024034E-01       5    8    1         0.4707501179E+01      0.1116397035E+02
          0                 2           2             5    8     1      -0.8385784126E-02       5    8    1        -0.4707417151E+00      0.1134530869E+01
          0                 3           2             5    8     1       0.5710420043E-03       5    8    1         0.3295201412E-01      0.7941729381E-01
          0                 4           1             5    8     1      -0.2272229032E-04       5    8    1        -0.1347738876E-02      0.3248219593E-02

    ------------------------------------------------
       NWT REQUIRED            4 OUTER ITERATIONS 
       AND A TOTAL OF          7 INNER ITERATIONS.
    ------------------------------------------------

 NO OUTPUT CONTROL FOR STRESS PERIOD   18   TIME STEP    5
 
 SOLVING FOR HEAD 
                                                   Max.-Head-Change                         Max.-Flux-Residual
  Residual-Control   Outer-Iter.   Inner-Iter.     Column Row Layer    Maximum-Head-Change  Column Row Layer    Maximum-Flux-Residual          L2-NORM 
          0                 1           2             5    6     1       0.8215433460E-01       5    8    1         0.4480002689E+01      0.1073433825E+02
          0                 2           2             5    6     1      -0.7991265486E-02       5    8    1        -0.4479926173E+00      0.1073396776E+01
          0                 3           2             5    6     1       0.5441766506E-03       5    8    1         0.3135956949E-01      0.7515524258E-01
          0                 4           1             5    6     1      -0.2165324812E-04       5    8    1        -0.1282607842E-02      0.3073850273E-02

    ------------------------------------------------
       NWT REQUIRED            4 OUTER ITERATIONS 
       AND A TOTAL OF          7 INNER ITERATIONS.
    ------------------------------------------------

 NO OUTPUT CONTROL FOR STRESS PERIOD   18   TIME STEP    6
 
 SOLVING FOR HEAD 
                                                   Max.-Head-Change                         Max.-Flux-Residual
  Residual-Control   Outer-Iter.   Inner-Iter.     Column Row Layer    Maximum-Head-Change  Column Row Layer    Maximum-Flux-Residual          L2-NORM 
          0                 1           2             5    6     1       0.7854028421E-01       5    6    1         0.4269698345E+01      0.1033182921E+02
          0                 2           2             5    6     1      -0.7639725603E-02       5    6    1        -0.4269627833E+00      0.1032999597E+01
          0                 3           2             5    6     1       0.5202379988E-03       5    6    1         0.2988747481E-01      0.7231019313E-01
          0                 4           1             5    6     1      -0.2070070768E-04       5    6    1        -0.1222399098E-02      0.2957490920E-02

    ------------------------------------------------
       NWT REQUIRED            4 OUTER ITERATIONS 
       AND A TOTAL OF          7 INNER ITERATIONS.
    ------------------------------------------------

 NO OUTPUT CONTROL FOR STRESS PERIOD   18   TIME STEP    7
 
 SOLVING FOR HEAD 
                                                   Max.-Head-Change                         Max.-Flux-Residual
  Residual-Control   Outer-Iter.   Inner-Iter.     Column Row Layer    Maximum-Head-Change  Column Row Layer    Maximum-Flux-Residual          L2-NORM 
          0                 1           2             5    6     1       0.7514071977E-01       5    6    1         0.4081870062E+01      0.9953042250E+01
          0                 2           2             5    6     1      -0.7309049007E-02       5    6    1        -0.4081805262E+00      0.9952850622E+00
          0                 3           2             5    6     1       0.4977200671E-03       5    6    1         0.2857271083E-01      0.6967013520E-01
          0                 4           1             5    6     1      -0.1980469962E-04       5    6    1        -0.1168625216E-02      0.2849508082E-02

    ------------------------------------------------
       NWT REQUIRED            4 OUTER ITERATIONS 
       AND A TOTAL OF          7 INNER ITERATIONS.
    ------------------------------------------------

 NO OUTPUT CONTROL FOR STRESS PERIOD   18   TIME STEP    8
 
 SOLVING FOR HEAD 
                                                   Max.-Head-Change                         Max.-Flux-Residual
  Residual-Control   Outer-Iter.   Inner-Iter.     Column Row Layer    Maximum-Head-Change  Column Row Layer    Maximum-Flux-Residual          L2-NORM 
          0                 1           2             5    6     1       0.7194096849E-01       5    6    1         0.3905187184E+01      0.9596123684E+01
          0                 2           2             5    6     1      -0.7203561851E-02       5    6    1        -0.4018245179E+00      0.9836676773E+00
          0                 3           2             4    7     1      -0.4786707744E-02       4    7    1        -0.2570843014E+00      0.6160871505E+00
          0                 4           2             4    7     1      -0.7903789718E-01       5    6    1        -0.4242619358E+01      0.1039185829E+02
          0                 5           2             4    7     1       0.8779887858E-01       5    8    1         0.4844011198E+01      0.1191068853E+02
          0                 6           2             4    7     1      -0.1362454020E+00       5    8    1        -0.7726321482E+01      0.1892557086E+02
          0                 7           2             4    7     1       0.3874118472E-01       5    8    1         0.2258096821E+01      0.5552025099E+01
          0                 8           2             4    7     1      -0.5914944530E-01       5    8    1        -0.3543001979E+01      0.8678868470E+01
          0                 9           2             4    7     1      -0.2439852857E-02       4    7    1        -0.1461392248E+00      0.3579484361E+00
          0                10           2             4    7     1      -0.1006160830E-03       4    7    1        -0.6026284980E-02      0.1476141592E-01
          0                11           1             4    7     1      -0.4148257520E-05       4    7    1        -0.2484373208E-03      0.6089374855E-03

    ------------------------------------------------
       NWT REQUIRED           11 OUTER ITERATIONS 
       AND A TOTAL OF         21 INNER ITERATIONS.
    ------------------------------------------------

 NO OUTPUT CONTROL FOR STRESS PERIOD   18   TIME STEP    9
 
 SOLVING FOR HEAD 
                                                   Max.-Head-Change                         Max.-Flux-Residual
  Residual-Control   Outer-Iter.   Inner-Iter.     Column Row Layer    Maximum-Head-Change  Column Row Layer    Maximum-Flux-Residual          L2-NORM 
          0                 1           2             5    6     1       0.7351216066E-01       5    6    1         0.3990796821E+01      0.9791435623E+01
          0                 2           2             5    6     1      -0.7150639067E-02       5    6    1        -0.3990735059E+00      0.9997674343E+00
          0                 3           2             5    6     1       0.4869328940E-03       5    6    1         0.2793521628E-01      0.6998234230E-01
          0                 4           1             5    6     1      -0.1937546858E-04       5    6    1        -0.1142551656E-02      0.2862178542E-02

    ------------------------------------------------
       NWT REQUIRED            4 OUTER ITERATIONS 
       AND A TOTAL OF          7 INNER ITERATIONS.
    ------------------------------------------------

 NO OUTPUT CONTROL FOR STRESS PERIOD   18   TIME STEP   10
 
 SOLVING FOR HEAD 
                                                   Max.-Head-Change                         Max.-Flux-Residual
  Residual-Control   Outer-Iter.   Inner-Iter.     Column Row Layer    Maximum-Head-Change  Column Row Layer    Maximum-Flux-Residual          L2-NORM 
          0                 1           2             5    6     1       0.7042781271E-01       5    6    1         0.3820549838E+01      0.9446134157E+01
          0                 2           2             5    6     1      -0.6850623308E-02       5    6    1        -0.3820493012E+00      0.9445869280E+00
          0                 3           2             5    6     1       0.4665028628E-03       5    6    1         0.2674351676E-01      0.6612067675E-01
          0                 4           1             5    6     1      -0.1856253947E-04       5    6    1        -0.1093811104E-02      0.2704302390E-02

    ------------------------------------------------
       NWT REQUIRED            4 OUTER ITERATIONS 
       AND A TOTAL OF          7 INNER ITERATIONS.
    ------------------------------------------------

 NO OUTPUT CONTROL FOR STRESS PERIOD   18   TIME STEP   11
 
 SOLVING FOR HEAD 
                                                   Max.-Head-Change                         Max.-Flux-Residual
  Residual-Control   Outer-Iter.   Inner-Iter.     Column Row Layer    Maximum-Head-Change  Column Row Layer    Maximum-Flux-Residual          L2-NORM 
          0                 1           2             5    6     1       0.6752196961E-01       5    6    1         0.3660251627E+01      0.9121952354E+01
          0                 2           2             5    6     1      -0.6567970588E-02       5    6    1        -0.3660199317E+00      0.9121716968E+00
          0                 3           2             5    6     1       0.4472551960E-03       5    6    1         0.2562145613E-01      0.6385162883E-01
          0                 4           1             5    6     1      -0.1779665794E-04       5    6    1        -0.1047918779E-02      0.2611475093E-02

    ------------------------------------------------
       NWT REQUIRED            4 OUTER ITERATIONS 
       AND A TOTAL OF          7 INNER ITERATIONS.
    ------------------------------------------------

 NO OUTPUT CONTROL FOR STRESS PERIOD   18   TIME STEP   12
 
 SOLVING FOR HEAD 
                                                   Max.-Head-Change                         Max.-Flux-Residual
  Residual-Control   Outer-Iter.   Inner-Iter.     Column Row Layer    Maximum-Head-Change  Column Row Layer    Maximum-Flux-Residual          L2-NORM 
          0                 1           2             5    6     1       0.6478271983E-01       5    6    1         0.3509233292E+01      0.8815706867E+01
          0                 2           2             5    6     1      -0.6301522295E-02       5    6    1        -0.3509185111E+00      0.8815497575E+00
          0                 3           2             5    6     1       0.4291109964E-03       5    6    1         0.2456435234E-01      0.6170816985E-01
          0                 4           1             5    6     1      -0.1707468447E-04       5    6    1        -0.1004683199E-02      0.2523826057E-02

    ------------------------------------------------
       NWT REQUIRED            4 OUTER ITERATIONS 
       AND A TOTAL OF          7 INNER ITERATIONS.
    ------------------------------------------------

 NO OUTPUT CONTROL FOR STRESS PERIOD   18   TIME STEP   13
 
 SOLVING FOR HEAD 
                                                   Max.-Head-Change                         Max.-Flux-Residual
  Residual-Control   Outer-Iter.   Inner-Iter.     Column Row Layer    Maximum-Head-Change  Column Row Layer    Maximum-Flux-Residual          L2-NORM 
          0                 1           2             5    6     1       0.6219892605E-01       5    6    1         0.3366869031E+01      0.8526125109E+01
          0                 2           2             5    6     1      -0.6236097724E-02       5    6    1        -0.3469028170E+00      0.8749185114E+00
          0                 3           2             5    6     1       0.4209043773E-03       5    6    1         0.2407124423E-01      0.6079561134E-01
          0                 4           2             4    7     1      -0.7024846721E-01       5    6    1        -0.3983935049E+01      0.9758413614E+01
          0                 5           2             4    7     1       0.6938054690E-01       4    7    1         0.4043834734E+01      0.9948257085E+01
          0                 6           2             4    7     1      -0.1093851461E+00       4    7    1        -0.6552118487E+01      0.1604941684E+02
          0                 7           2             4    7     1       0.4421876655E-01       4    7    1         0.2721812351E+01      0.6700742286E+01
          0                 8           2             4    7     1      -0.7544412105E-01       4    7    1        -0.4771654378E+01      0.1168834501E+02
          0                 9           2             4    7     1      -0.6942256063E-02       5    8    1        -0.4391289763E+00      0.1075598375E+01
          0                10           2             4    7     1      -0.6387434251E-03       5    8    1        -0.4040674347E-01      0.9896929049E-01
          0                11           1             4    7     1      -0.5876312107E-04       5    8    1        -0.3717553196E-02      0.9105400954E-02

    ------------------------------------------------
       NWT REQUIRED           11 OUTER ITERATIONS 
       AND A TOTAL OF         21 INNER ITERATIONS.
    ------------------------------------------------

 NO OUTPUT CONTROL FOR STRESS PERIOD   18   TIME STEP   14
 
 SOLVING FOR HEAD 
                                                   Max.-Head-Change                         Max.-Flux-Residual
  Residual-Control   Outer-Iter.   Inner-Iter.     Column Row Layer    Maximum-Head-Change  Column Row Layer    Maximum-Flux-Residual          L2-NORM 
          0                 1           2             5    6     1       0.6415413860E-01       5    6    1         0.3474002601E+01      0.8749056351E+01
          0                 2           2             5    6     1      -0.6240380802E-02       5    6    1        -0.3473956000E+00      0.8979430022E+00
          0                 3           2             5    6     1       0.4249474646E-03       5    6    1         0.2431774695E-01      0.6285343066E-01
          0                 4           1             5    6     1      -0.1690901459E-04       5    6    1        -0.9945970294E-03      0.2570561548E-02

    ------------------------------------------------
       NWT REQUIRED            4 OUTER ITERATIONS 
       AND A TOTAL OF          7 INNER ITERATIONS.
    ------------------------------------------------

 NO OUTPUT CONTROL FOR STRESS PERIOD   18   TIME STEP   15
 
 SOLVING FOR HEAD 
                                                   Max.-Head-Change                         Max.-Flux-Residual
  Residual-Control   Outer-Iter.   Inner-Iter.     Column Row Layer    Maximum-Head-Change  Column Row Layer    Maximum-Flux-Residual          L2-NORM 
          0                 1           2             5    6     1       0.6161666699E-01       5    6    1         0.3334194751E+01      0.8463640591E+01
          0                 2           2             5    6     1      -0.5993559304E-02       5    6    1        -0.3334151789E+00      0.8463349762E+00
          0                 3           2             5    6     1       0.4081397837E-03       5    6    1         0.2333911360E-01      0.5924215095E-01
          0                 4           1             5    6     1      -0.1624022190E-04       5    6    1        -0.9545708826E-03      0.2422918196E-02

    ------------------------------------------------
       NWT REQUIRED            4 OUTER ITERATIONS 
       AND A TOTAL OF          7 INNER ITERATIONS.
    ------------------------------------------------

 NO OUTPUT CONTROL FOR STRESS PERIOD   18   TIME STEP   16
 
 SOLVING FOR HEAD 
                                                   Max.-Head-Change                         Max.-Flux-Residual
  Residual-Control   Outer-Iter.   Inner-Iter.     Column Row Layer    Maximum-Head-Change  Column Row Layer    Maximum-Flux-Residual          L2-NORM 
          0                 1           2             5    6     1       0.5922185263E-01       5    6    1         0.3202325325E+01      0.8195376951E+01
          0                 2           2             5    6     1      -0.5760614026E-02       5    6    1        -0.3202285698E+00      0.8195122459E+00
          0                 3           2             5    6     1       0.3922770265E-03       5    6    1         0.2241604742E-01      0.5736476606E-01
          0                 4           1             5    6     1      -0.1560902930E-04       5    6    1        -0.9168174404E-03      0.2346147450E-02

    ------------------------------------------------
       NWT REQUIRED            4 OUTER ITERATIONS 
       AND A TOTAL OF          7 INNER ITERATIONS.
    ------------------------------------------------

 NO OUTPUT CONTROL FOR STRESS PERIOD   18   TIME STEP   17
 
 SOLVING FOR HEAD 
                                                   Max.-Head-Change                         Max.-Flux-Residual
  Residual-Control   Outer-Iter.   Inner-Iter.     Column Row Layer    Maximum-Head-Change  Column Row Layer    Maximum-Flux-Residual          L2-NORM 
          0                 1           2             5    6     1       0.5696016839E-01       5    6    1         0.3077860713E+01      0.7941175710E+01
          0                 2           2             5    6     1      -0.5540618272E-02       5    6    1        -0.3077824145E+00      0.7940951646E+00
          0                 3           2             5    6     1       0.3772960877E-03       5    6    1         0.2154481327E-01      0.5558569111E-01
          0                 4           1             5    6     1      -0.1501292472E-04       5    6    1        -0.8811839245E-03      0.2273362877E-02

    ------------------------------------------------
       NWT REQUIRED            4 OUTER ITERATIONS 
       AND A TOTAL OF          7 INNER ITERATIONS.
    ------------------------------------------------

 NO OUTPUT CONTROL FOR STRESS PERIOD   18   TIME STEP   18
 
 SOLVING FOR HEAD 
                                                   Max.-Head-Change                         Max.-Flux-Residual
  Residual-Control   Outer-Iter.   Inner-Iter.     Column Row Layer    Maximum-Head-Change  Column Row Layer    Maximum-Flux-Residual          L2-NORM 
          0                 1           2             5    6     1       0.5482294801E-01       5    6    1         0.2960315162E+01      0.7700093523E+01
          0                 2           2             4    7     1      -0.1868151467E+01       5    6    1        -0.1002960281E+03      0.2456455939E+03
          0                 3           2             4    7     1       0.1271945424E+00       5    7    1         0.7018598088E+01      0.1726503769E+02
          0                 4           2             4    7     1      -0.5061284333E-02       5    7    1        -0.2870098049E+00      0.7156050587E+00
          0                 5           1             7   13     1       0.9045740613E-04       7   13    1         0.5187581979E-02      0.1120232235E-01

    ------------------------------------------------
       NWT REQUIRED            5 OUTER ITERATIONS 
       AND A TOTAL OF          9 INNER ITERATIONS.
    ------------------------------------------------

 NO OUTPUT CONTROL FOR STRESS PERIOD   18   TIME STEP   19
 
 SOLVING FOR HEAD 
                                                   Max.-Head-Change                         Max.-Flux-Residual
  Residual-Control   Outer-Iter.   Inner-Iter.     Column Row Layer    Maximum-Head-Change  Column Row Layer    Maximum-Flux-Residual          L2-NORM 
          0                 1           2             5    8     1       0.1056530022E+00       5    8    1         0.5771348492E+01      0.1334570705E+02
          0                 2           2             5    8     1      -0.1027698846E-01       5    8    1        -0.5771232020E+00      0.1349766954E+01
          0                 3           2             5    8     1       0.6998264606E-03       5    8    1         0.4039875213E-01      0.9448161808E-01
          0                 4           1             5    8     1      -0.2784674243E-04       5    8    1        -0.1652310751E-02      0.3864145452E-02

    ------------------------------------------------
       NWT REQUIRED            4 OUTER ITERATIONS 
       AND A TOTAL OF          7 INNER ITERATIONS.
    ------------------------------------------------

 NO OUTPUT CONTROL FOR STRESS PERIOD   18   TIME STEP   20
 
 SOLVING FOR HEAD 
                                                   Max.-Head-Change                         Max.-Flux-Residual
  Residual-Control   Outer-Iter.   Inner-Iter.     Column Row Layer    Maximum-Head-Change  Column Row Layer    Maximum-Flux-Residual          L2-NORM 
          0                 1           2             5    8     1       0.1006049001E+00       5    8    1         0.5490333289E+01      0.1284176793E+02
          0                 2           2             5    8     1      -0.9785961408E-02       5    8    1        -0.5490227721E+00      0.1284123033E+01
          0                 3           2             5    8     1       0.6663891861E-03       5    8    1         0.3843171089E-01      0.8988767927E-01
          0                 4           1             5    8     1      -0.2651624245E-04       5    8    1        -0.1571858700E-02      0.3676333114E-02

    ------------------------------------------------
       NWT REQUIRED            4 OUTER ITERATIONS 
       AND A TOTAL OF          7 INNER ITERATIONS.
    ------------------------------------------------

 NO OUTPUT CONTROL FOR STRESS PERIOD   18   TIME STEP   21
 
 SOLVING FOR HEAD 
                                                   Max.-Head-Change                         Max.-Flux-Residual
  Residual-Control   Outer-Iter.   Inner-Iter.     Column Row Layer    Maximum-Head-Change  Column Row Layer    Maximum-Flux-Residual          L2-NORM 
          0                 1           2             5    8     1       0.9588918828E-01       5    8    1         0.5228016088E+01      0.1237002328E+02
          0                 2           2             5    8     1      -0.9327264932E-02       5    8    1        -0.5227920070E+00      0.1236954622E+01
          0                 3           2             5    8     1       0.6351535224E-03       5    8    1         0.3659554749E-01      0.8658604402E-01
          0                 4           1             5    8     1      -0.2527334698E-04       5    8    1        -0.1496759555E-02      0.3541312520E-02

    ------------------------------------------------
       NWT REQUIRED            4 OUTER ITERATIONS 
       AND A TOTAL OF          7 INNER ITERATIONS.
    ------------------------------------------------

 NO OUTPUT CONTROL FOR STRESS PERIOD   18   TIME STEP   22
 
 SOLVING FOR HEAD 
                                                   Max.-Head-Change                         Max.-Flux-Residual
  Residual-Control   Outer-Iter.   Inner-Iter.     Column Row Layer    Maximum-Head-Change  Column Row Layer    Maximum-Flux-Residual          L2-NORM 
          0                 1           2             5    8     1       0.9148045203E-01       5    8    1         0.4982956298E+01      0.1192674381E+02
          0                 2           2             5    8     1      -0.8898427174E-02       5    8    1        -0.4982868678E+00      0.1192632012E+01
          0                 3           2             5    8     1       0.6059511428E-03       5    8    1         0.3488017905E-01      0.8348354636E-01
          0                 4           1             5    8     1      -0.2411135755E-04       5    8    1        -0.1426600921E-02      0.3414421492E-02

    ------------------------------------------------
       NWT REQUIRED            4 OUTER ITERATIONS 
       AND A TOTAL OF          7 INNER ITERATIONS.
    ------------------------------------------------

 NO OUTPUT CONTROL FOR STRESS PERIOD   18   TIME STEP   23
 
 SOLVING FOR HEAD 
                                                   Max.-Head-Change                         Max.-Flux-Residual
  Residual-Control   Outer-Iter.   Inner-Iter.     Column Row Layer    Maximum-Head-Change  Column Row Layer    Maximum-Flux-Residual          L2-NORM 
          0                 1           2             5    8     1       0.8735569887E-01       5    8    1         0.4753851847E+01      0.1150973128E+02
          0                 2           2             5    8     1      -0.8555422951E-02       5    8    1        -0.4785824426E+00      0.1157850144E+01
          0                 3           2             5    8     1       0.5028865994E-03       5    8    1         0.2898924583E-01      0.7150809195E-01
          0                 4           1             5    8     1      -0.4191234671E-04       5    8    1        -0.2459901668E-02      0.6088493824E-02

    ------------------------------------------------
       NWT REQUIRED            4 OUTER ITERATIONS 
       AND A TOTAL OF          7 INNER ITERATIONS.
    ------------------------------------------------

 NO OUTPUT CONTROL FOR STRESS PERIOD   18   TIME STEP   24
 
 SOLVING FOR HEAD 
                                                   Max.-Head-Change                         Max.-Flux-Residual
  Residual-Control   Outer-Iter.   Inner-Iter.     Column Row Layer    Maximum-Head-Change  Column Row Layer    Maximum-Flux-Residual          L2-NORM 
          0                 1           2             5    8     1       0.8349881712E-01       5    8    1         0.4539782787E+01      0.1111752443E+02
          0                 2           2             4    7     1      -0.1869285648E+01       5    8    1        -0.1004539709E+03      0.2459325778E+03
          0                 3           2             4    7     1       0.1272719210E+00       5    6    1         0.7029598808E+01      0.1725936683E+02
          0                 4           2             4    7     1      -0.5064362567E-02       5    6    1        -0.2874071934E+00      0.7135086941E+00
          0                 5           1             7   13     1       0.9074165957E-04       7   13    1         0.5202538491E-02      0.1093083582E-01

    ------------------------------------------------
       NWT REQUIRED            5 OUTER ITERATIONS 
       AND A TOTAL OF          9 INNER ITERATIONS.
    ------------------------------------------------

 NO OUTPUT CONTROL FOR STRESS PERIOD   18   TIME STEP   25
 
 SOLVING FOR HEAD 
                                                   Max.-Head-Change                         Max.-Flux-Residual
  Residual-Control   Outer-Iter.   Inner-Iter.     Column Row Layer    Maximum-Head-Change  Column Row Layer    Maximum-Flux-Residual          L2-NORM 
          0                 1           2             5    8     1       0.1338637706E+00       5    8    1         0.7318138717E+01      0.1672665879E+02
          0                 2           2             5    8     1      -0.1302102795E-01       5    8    1        -0.7317953357E+00      0.1684797737E+01
          0                 3           2             5    8     1       0.8866863450E-03       5    8    1         0.5122587133E-01      0.1179344474E+00
          0                 4           1             5    8     1      -0.3528206727E-04       5    8    1        -0.2095140239E-02      0.4823388102E-02

    ------------------------------------------------
       NWT REQUIRED            4 OUTER ITERATIONS 
       AND A TOTAL OF          7 INNER ITERATIONS.
    ------------------------------------------------

 NO OUTPUT CONTROL FOR STRESS PERIOD   18   TIME STEP   26
 
 SOLVING FOR HEAD 
                                                   Max.-Head-Change                         Max.-Flux-Residual
  Residual-Control   Outer-Iter.   Inner-Iter.     Column Row Layer    Maximum-Head-Change  Column Row Layer    Maximum-Flux-Residual          L2-NORM 
          0                 1           2             5    8     1       0.1273670461E+00       5    8    1         0.6956296342E+01      0.1608238273E+02
          0                 2           2             5    8     1      -0.1238909937E-01       5    8    1        -0.6956128835E+00      0.1608162167E+01
          0                 3           2             5    8     1       0.8436541013E-03       5    8    1         0.4869308168E-01      0.1125708078E+00
          0                 4           1             5    8     1      -0.3356977562E-04       5    8    1        -0.1991549092E-02      0.4604073273E-02

    ------------------------------------------------
       NWT REQUIRED            4 OUTER ITERATIONS 
       AND A TOTAL OF          7 INNER ITERATIONS.
    ------------------------------------------------

 NO OUTPUT CONTROL FOR STRESS PERIOD   18   TIME STEP   27
 
 SOLVING FOR HEAD 
                                                   Max.-Head-Change                         Max.-Flux-Residual
  Residual-Control   Outer-Iter.   Inner-Iter.     Column Row Layer    Maximum-Head-Change  Column Row Layer    Maximum-Flux-Residual          L2-NORM 
          0                 1           2             5    8     1       0.1213010261E+00       5    8    1         0.6618692235E+01      0.1547935576E+02
          0                 2           2             5    8     1      -0.1179906335E-01       5    8    1        -0.6618540307E+00      0.1547867845E+01
          0                 3           2             5    8     1       0.8034746178E-03       5    8    1         0.4632994623E-01      0.1083502654E+00
          0                 4           1             5    8     1      -0.3197099714E-04       5    8    1        -0.1894896779E-02      0.4431464678E-02

    ------------------------------------------------
       NWT REQUIRED            4 OUTER ITERATIONS 
       AND A TOTAL OF          7 INNER ITERATIONS.
    ------------------------------------------------

 NO OUTPUT CONTROL FOR STRESS PERIOD   18   TIME STEP   28
 
 SOLVING FOR HEAD 
                                                   Max.-Head-Change                         Max.-Flux-Residual
  Residual-Control   Outer-Iter.   Inner-Iter.     Column Row Layer    Maximum-Head-Change  Column Row Layer    Maximum-Flux-Residual          L2-NORM 
          0                 1           2             5    8     1       0.1156330360E+00       5    8    1         0.6303474042E+01      0.1491335587E+02
          0                 2           2             5    8     1      -0.1124774204E-01       5    8    1        -0.6303335761E+00      0.1491275291E+01
          0                 3           2             5    8     1       0.7659314890E-03       5    8    1         0.4412350055E-01      0.1043888765E+00
          0                 4           1             5    8     1      -0.3047712177E-04       5    8    1        -0.1804653073E-02      0.4269550498E-02

    ------------------------------------------------
       NWT REQUIRED            4 OUTER ITERATIONS 
       AND A TOTAL OF          7 INNER ITERATIONS.
    ------------------------------------------------

 NO OUTPUT CONTROL FOR STRESS PERIOD   18   TIME STEP   29
 
 SOLVING FOR HEAD 
                                                   Max.-Head-Change                         Max.-Flux-Residual
  Residual-Control   Outer-Iter.   Inner-Iter.     Column Row Layer    Maximum-Head-Change  Column Row Layer    Maximum-Flux-Residual          L2-NORM 
          0                 1           2             5    8     1       0.1103329060E+00       5    8    1         0.6008932064E+01      0.1438149595E+02
          0                 2           2             5    8     1      -0.1078893532E-01       5    8    1        -0.6040044945E+00      0.1444790399E+01
          0                 3           2             5    8     1       0.6562864847E-03       5    8    1         0.3784277407E-01      0.9177636204E-01
          0                 4           2             5    8     1      -0.1067355018E-03       5    8    1        -0.6238257071E-02      0.1490755181E-01
          0                 5           2             4    7     1      -0.3040195651E-03       4    7    1        -0.1723974226E-01      0.4231495346E-01
          0                 6           2             4    7     1      -0.9416417200E-02       4    7    1        -0.5339581396E+00      0.1307943355E+01
          0                 7           2             4    7     1       0.9584606735E-02       5    8    1         0.5586053140E+00      0.1374717468E+01
          0                 8           2             4    7     1       0.1496224244E-03       4    7    1         0.8719488933E-02      0.2140980442E-01
          0                 9           1             4   13     1      -0.2489810658E-04       4   13    1        -0.1554639072E-02      0.2948466369E-02

    ------------------------------------------------
       NWT REQUIRED            9 OUTER ITERATIONS 
       AND A TOTAL OF         17 INNER ITERATIONS.
    ------------------------------------------------

 NO OUTPUT CONTROL FOR STRESS PERIOD   18   TIME STEP   30



 STREAM LISTING     PERIOD     18   STEP       30

 LAYER ROW COL. STREAM  RCH.  FLOW INTO     FLOW TO   FLOW OUT OF   OVRLND.     DIRECT     STREAM       STREAM     STREAM     STREAM   STREAMBED  STREAMBED
                SEG.NO.  NO.  STRM. RCH.    AQUIFER    STRM. RCH.    RUNOFF     PRECIP       ET          HEAD       DEPTH      WIDTH   CONDCTNC.   GRADIENT

   1    1    1     1     1    4.7251E+01  3.2762E-01   4.6923E+01  0.000E+00  0.000E+00  0.000E+00  1.09443E+03  1.381E+00  1.662E+01  7.477E-02  1.460E+00
   1    2    2     1     2    4.6923E+01  5.0760E-01   4.6416E+01  0.000E+00  0.000E+00  0.000E+00  1.08944E+03  1.379E+00  1.656E+01  1.159E-01  1.460E+00
   1    3    3     1     3    4.6416E+01  4.3310E-01   4.5982E+01  0.000E+00  0.000E+00  0.000E+00  1.08379E+03  1.376E+00  1.650E+01  9.898E-02  1.459E+00
   1    3    4     1     4    4.5982E+01  3.9899E-01   4.5583E+01  0.000E+00  0.000E+00  0.000E+00  1.07878E+03  1.373E+00  1.644E+01  9.124E-02  1.458E+00
   1    4    5     2     1    4.3583E+01  3.6514E-01   4.3218E+01  0.000E+00  0.000E+00  0.000E+00  1.07362E+03  1.681E+00  1.200E+01  7.800E-02  1.560E+00
   1    5    6     2     2    4.3218E+01  2.8043E-01   4.2938E+01  0.000E+00  0.000E+00  0.000E+00  1.06818E+03  1.674E+00  1.200E+01  6.000E-02  1.558E+00
   1    6    6     2     3    4.2938E+01  2.8003E-01   4.2658E+01  0.000E+00  0.000E+00  0.000E+00  1.06346E+03  1.667E+00  1.200E+01  6.000E-02  1.556E+00
   1    7    6     2     4    4.2658E+01  2.7964E-01   4.2378E+01  0.000E+00  0.000E+00  0.000E+00  1.05874E+03  1.661E+00  1.200E+01  6.000E-02  1.554E+00
   1    8    6     2     5    4.2378E+01  2.7925E-01   4.2099E+01  0.000E+00  0.000E+00  0.000E+00  1.05401E+03  1.654E+00  1.200E+01  6.000E-02  1.551E+00
   1    3    5     3     1    2.0000E+00  2.8252E-01   1.7175E+00  0.000E+00  0.000E+00  0.000E+00  1.07555E+03  1.909E+00  9.636E+00  7.227E-02  1.955E+00
   1    3    6     3     2    1.7175E+00  2.4905E-01   1.4684E+00  0.000E+00  0.000E+00  0.000E+00  1.07264E+03  1.727E+00  8.909E+00  6.682E-02  1.864E+00
   1    3    7     3     3    1.4684E+00  1.9718E-01   1.2712E+00  0.000E+00  0.000E+00  0.000E+00  1.06987E+03  1.555E+00  8.218E+00  5.547E-02  1.777E+00
   1    4    8     3     4    1.2712E+00  2.2567E-01   1.0456E+00  0.000E+00  0.000E+00  0.000E+00  1.06682E+03  1.364E+00  7.455E+00  6.709E-02  1.682E+00
   1    5    8     3     5    1.0456E+00  1.5790E-01   8.8768E-01  0.000E+00  0.000E+00  0.000E+00  1.06362E+03  1.164E+00  6.655E+00  4.991E-02  1.582E+00
   1    6    8     3     6    8.8768E-01  5.5980E-02   8.3170E-01  0.000E+00  0.000E+00  0.000E+00  1.06158E+03  1.036E+00  6.145E+00  1.844E-02  1.518E+00
   1    5   10     4     1    1.0000E+01  9.0919E-02   9.9091E+00  0.000E+00  0.000E+00  0.000E+00  1.07836E+03  6.368E-01  1.000E+01  2.500E-02  1.212E+00
   1    5    9     4     2    9.9091E+00  1.8158E-01   9.7275E+00  0.000E+00  0.000E+00  0.000E+00  1.07154E+03  6.315E-01  1.000E+01  5.000E-02  1.211E+00
   1    6    8     4     3    9.7275E+00  1.2689E-01   9.6006E+00  0.000E+00  0.000E+00  0.000E+00  1.06381E+03  6.256E-01  1.000E+01  3.500E-02  1.209E+00
   1    6    8     5     1    1.0432E+01  2.2686E-01   1.0205E+01  0.000E+00  0.000E+00  0.000E+00  1.05868E+03  6.790E-01  1.542E+01  6.166E-02  1.226E+00
   1    7    7     5     2    1.0205E+01  2.7894E-01   9.9265E+00  0.000E+00  0.000E+00  0.000E+00  1.05417E+03  6.732E-01  1.519E+01  7.594E-02  1.224E+00
   1    8    7     5     3    9.9265E+00  1.9221E-01   9.7343E+00  0.000E+00  0.000E+00  0.000E+00  1.04992E+03  6.676E-01  1.497E+01  5.241E-02  1.223E+00
   1    8    6     5     4    9.7343E+00  1.3577E-01   9.5985E+00  0.000E+00  0.000E+00  0.000E+00  1.04691E+03  6.637E-01  1.482E+01  3.706E-02  1.221E+00
   1    9    6     6     1    4.7769E+01  2.8795E-01   4.7481E+01  0.000E+00  0.000E+00  0.000E+00  1.04453E+03  1.799E+00  1.200E+01  6.000E-02  1.600E+00
   1   10    7     6     2    4.7481E+01  2.8756E-01   4.7194E+01  0.000E+00  0.000E+00  0.000E+00  1.03997E+03  1.793E+00  1.200E+01  6.000E-02  1.598E+00
   1   11    7     6     3    4.7194E+01  2.8717E-01   4.6906E+01  0.000E+00  0.000E+00  0.000E+00  1.03542E+03  1.786E+00  1.200E+01  6.000E-02  1.595E+00
   1   12    7     6     4    4.6906E+01  2.8677E-01   4.6620E+01  0.000E+00  0.000E+00  0.000E+00  1.03087E+03  1.780E+00  1.200E+01  6.000E-02  1.593E+00
   1   13    7     6     5    4.6620E+01  1.8544E-02   4.6601E+01  0.000E+00  0.000E+00  0.000E+00  1.02769E+03  1.776E+00  1.200E+01  2.400E-02  2.575E-01
   1   14    9     7     1    1.5000E+02  1.3435E+00   1.4866E+02  0.000E+00  0.000E+00  0.000E+00  1.03987E+03  2.288E+00  5.529E+01  5.593E-01  8.007E-01
   1   13    8     7     2    1.4866E+02  1.8807E+00   1.4678E+02  0.000E+00  0.000E+00  0.000E+00  1.03478E+03  2.279E+00  5.526E+01  6.148E-01  1.020E+00
   1   13    7     7     3    1.4678E+02  1.5506E+00   1.4523E+02  0.000E+00  0.000E+00  0.000E+00  1.02969E+03  2.270E+00  5.521E+01  5.584E-01  9.256E-01
   1   13    6     8     1    1.9183E+02  1.0854E+00   1.9074E+02  0.000E+00  0.000E+00  0.000E+00  1.02496E+03  3.086E+00  4.475E+01  4.560E-01  7.934E-01
   1   13    5     8     2    1.9074E+02  2.8967E-01   1.9045E+02  0.000E+00  0.000E+00  0.000E+00  1.01871E+03  3.082E+00  4.469E+01  4.554E-01  2.120E-01
   1   13    4     8     3    1.9045E+02 -2.1065E+00   1.9256E+02  0.000E+00  0.000E+00  0.000E+00  1.01246E+03  3.087E+00  4.477E+01  4.562E+00 -1.539E-01
   1   13    3     8     4    1.9256E+02 -3.4731E+00   1.9603E+02  0.000E+00  0.000E+00  0.000E+00  1.00623E+03  3.104E+00  4.501E+01  4.587E+00 -2.524E-01
   1   13    2     8     5    1.9603E+02 -2.4986E+00   1.9853E+02  0.000E+00  0.000E+00  0.000E+00  9.99997E+02  3.122E+00  4.527E+01  4.613E+00 -1.805E-01
   1   13    1     8     6    1.9853E+02 -1.9654E+00   2.0049E+02  0.000E+00  0.000E+00  0.000E+00  9.95010E+02  3.135E+00  4.546E+01  2.780E+00 -2.357E-01
   1    8    6     9     1    3.9284E+00  0.0000E+00   3.9284E+00  0.000E+00  0.000E+00  0.000E+00  1.08003E+03  1.279E+00  4.000E+00  0.000E+00  1.426E+00
   1    8    5     9     2    3.9284E+00  0.0000E+00   3.9284E+00  0.000E+00  0.000E+00  0.000E+00  1.07953E+03  1.279E+00  4.000E+00  0.000E+00  1.426E+00





UNSATURATED ZONE PACKAGE VOLUMETRIC BUDGET FOR  TIME STEP    30 STRESS PERIOD   18
  ------------------------------------------------------------------------------



     CUMULATIVE VOLUMES      L**3       RATES FOR THIS TIME STEP      L**3/T
     ------------------                 ------------------------

           IN:                                      IN:
           ---                                      ---
        INFILTRATION =  3000820863.7581          INFILTRATION =           4.7759

          OUT:                                     OUT:
          ----                                     ----
              UZF ET =   472525015.3276                UZF ET =           8.2485
        UZF RECHARGE =  1862092798.7207          UZF RECHARGE =       0.0000E+00

            IN - OUT =   666203049.7097              IN - OUT =          -3.4726

          STORAGE:                                 STORAGE:
          --------                                 --------
      STORAGE CHANGE =   667040155.6269        STORAGE CHANGE =          -3.4726

 PERCENT DISCREPANCY IS DIFFERENCE BETWEEN IN-OUT MINUS CHANGE IN STORAGE
 DIVIDED BY THE AVERAGE OF IN AND OUT TIMES 100

 PERCENT DISCREPANCY =          -0.01     PERCENT DISCREPANCY =          -0.00






1
  VOLUMETRIC BUDGET FOR AGRICULTURAL FIELDS AT  END OF TIME STEP   30, STRESS PERIOD  18
  ------------------------------------------------------------------------------

     CUMULATIVE VOLUMES      L**3       RATES FOR THIS TIME STEP      L**3/T
     ------------------                 ------------------------

           IN:                                      IN:
           ---                                      ---
               AG WELLS  =  2578720512.0000                 AG WELLS  =       7.2245E-02
      DIVERSION SEGMENTS =   384151072.0000        DIVERSION SEGMENTS =           3.9284
       IRRIGATION PONDS  =           0.0000         IRRIGATION PONDS  =           0.0000
           GW IRRIGATION =           0.0000             GW IRRIGATION =           0.0000
           SW IRRIGATION =           0.0000             SW IRRIGATION =           0.0000
        SYSTEM LOSSES GW =           0.0000          SYSTEM LOSSES GW =           0.0000
        SYSTEM LOSSES SW =           0.0000          SYSTEM LOSSES SW =           0.0000

                TOTAL IN =  2962871552.0000                  TOTAL IN =           4.0006

          OUT:                                     OUT:
          ----                                     ----
               AG WELLS  =           0.0000                 AG WELLS  =           0.0000
      DIVERSION SEGMENTS =           0.0000        DIVERSION SEGMENTS =           0.0000
       IRRIGATION PONDS  =           0.0000         IRRIGATION PONDS  =           0.0000
           GW IRRIGATION =  2578720512.0000             GW IRRIGATION =       7.2245E-02
           SW IRRIGATION =   384158752.0000             SW IRRIGATION =           3.9284
        SYSTEM LOSSES GW =           0.0000          SYSTEM LOSSES GW =           0.0000
        SYSTEM LOSSES SW =           0.0000          SYSTEM LOSSES SW =           0.0000

               TOTAL OUT =  2962879232.0000                 TOTAL OUT =           4.0007

                IN - OUT =       -7680.0000                  IN - OUT =      -7.8678E-05

     PERCENT DISCREPANCY =          -0.00         PERCENT DISCREPANCY =          -0.00



1
  VOLUMETRIC BUDGET FOR ENTIRE MODEL AT END OF TIME STEP   30, STRESS PERIOD  18
  ------------------------------------------------------------------------------

     CUMULATIVE VOLUMES      L**3       RATES FOR THIS TIME STEP      L**3/T
     ------------------                 ------------------------

           IN:                                      IN:
           ---                                      ---
             STORAGE     =  2874675968.0000               STORAGE     =          27.8034
       CONSTANT HEAD     =           0.0000         CONSTANT HEAD     =           0.0000
     HEAD DEP BOUNDS     =    12804470.0000       HEAD DEP BOUNDS     =           0.2863
      STREAM LEAKAGE     =   546520512.0000        STREAM LEAKAGE     =          12.8712
        UZF RECHARGE     =  1862092672.0000          UZF RECHARGE     =           0.0000
               GW ET     =           0.0000                 GW ET     =           0.0000
     SURFACE LEAKAGE     =           0.0000       SURFACE LEAKAGE     =           0.0000
           AG WELLS      =           0.0000             AG WELLS      =           0.0000

                TOTAL IN =  5296093696.0000                  TOTAL IN =          40.9608

          OUT:                                     OUT:
          ----                                     ----
             STORAGE     =  2234026496.0000               STORAGE     =          30.5519
       CONSTANT HEAD     =           0.0000         CONSTANT HEAD     =           0.0000
     HEAD DEP BOUNDS     =    13043214.0000       HEAD DEP BOUNDS     =           0.2933
      STREAM LEAKAGE     =   468906528.0000        STREAM LEAKAGE     =          10.0435
        UZF RECHARGE     =           0.0000          UZF RECHARGE     =           0.0000
               GW ET     =     1320838.1250                 GW ET     =           0.0000
     SURFACE LEAKAGE     =           0.0000       SURFACE LEAKAGE     =           0.0000
           AG WELLS      =  2578720512.0000             AG WELLS      =       7.2245E-02

               TOTAL OUT =  5296017408.0000                 TOTAL OUT =          40.9609

                IN - OUT =       76288.0000                  IN - OUT =      -4.1962E-05

     PERCENT DISCREPANCY =           0.00         PERCENT DISCREPANCY =          -0.00






         TIME SUMMARY AT END OF TIME STEP   30 IN STRESS PERIOD   18
                    SECONDS     MINUTES      HOURS       DAYS        YEARS
                    -----------------------------------------------------------
   TIME STEP LENGTH  87667.      1461.1      24.352      1.0147     2.77799E-03
 STRESS PERIOD TIME 2.63000E+06  43833.      730.56      30.440     8.33397E-02
         TOTAL TIME 4.47965E+07 7.46608E+05  12443.      518.48      1.4195    
1
1
                            STRESS PERIOD NO.   19, LENGTH =   2630000.    
                            -----------------------------------------------

                              NUMBER OF TIME STEPS =    30

                               MULTIPLIER FOR DELT =     1.000

                            INITIAL TIME STEP SIZE =   87666.66    

 REUSING NON-PARAMETER GHB CELLS FROM LAST STRESS PERIOD

      2 GHB CELLS

 REUSING STREAM SEGMENT DATA FROM LAST STRESS PERIOD



            AREAL INFILTRATION RATE
 READING ON UNIT   19 WITH FORMAT: (FREE)              

            1           2           3           4           5           6           7           8           9          10
 ........................................................................................................................
   1   1.0000E-10  2.0000E-10   0.000       0.000       0.000       0.000       0.000       0.000       0.000       0.000    
   2   2.0000E-10  1.0000E-10  2.0000E-10   0.000       0.000      8.0000E-10  8.0000E-10  5.0000E-10   0.000       0.000    
   3    0.000      5.0000E-10  1.0000E-10  1.0000E-10  8.0000E-10  8.0000E-10  5.0000E-10  5.0000E-10   0.000       0.000    
   4   8.0000E-10  5.0000E-10  1.0000E-10  1.0000E-10  1.0000E-10  1.0000E-10  1.0000E-10  1.0000E-10  2.0000E-10   0.000    
   5   8.0000E-10  5.0000E-10  1.0000E-10  1.0000E-10  1.0000E-10  1.0000E-10  1.0000E-10  1.0000E-10  1.0000E-10  1.0000E-10
   6   8.0000E-10  5.0000E-10  5.0000E-10  2.0000E-10  2.0000E-10  1.0000E-10  1.0000E-10  1.0000E-10  1.0000E-10  5.0000E-10
   7   8.0000E-10  5.0000E-10  5.0000E-10  2.0000E-10  2.0000E-10  1.0000E-10  1.0000E-10  2.0000E-10  2.0000E-10   0.000    
   8    0.000      5.0000E-10  5.0000E-10  2.0000E-10  2.0000E-10  1.0000E-10  1.0000E-10  2.0000E-10  5.0000E-10   0.000    
   9    0.000      5.0000E-10  5.0000E-10  2.0000E-10  2.0000E-10  1.0000E-10  1.0000E-10  2.0000E-10  5.0000E-10   0.000    
  10    0.000      5.0000E-10  5.0000E-10  2.0000E-10  2.0000E-10  1.0000E-10  1.0000E-10  2.0000E-10  5.0000E-10  8.0000E-10
  11    0.000      1.0000E-10  1.0000E-10  1.0000E-10  1.0000E-10  1.0000E-10  1.0000E-10  2.0000E-10  5.0000E-10   0.000    
  12   1.0000E-10  1.0000E-10  1.0000E-10  1.0000E-10  1.0000E-10  1.0000E-10  1.0000E-10  1.0000E-10  2.0000E-10   0.000    
  13   1.0000E-10  1.0000E-10  2.0000E-10  2.0000E-10  2.0000E-10  2.0000E-10  2.0000E-10  1.0000E-10  1.0000E-10   0.000    
  14    0.000      2.0000E-10  5.0000E-10  5.0000E-10  5.0000E-10  5.0000E-10  5.0000E-10  2.0000E-10  1.0000E-10   0.000    
  15    0.000       0.000      8.0000E-10  8.0000E-10  8.0000E-10  8.0000E-10   0.000       0.000       0.000       0.000    

                  ET RATE =  1.500000E-07

 USING ET EXTINCTION DEPTH FROM PREVIOUS STRESS PERIOD. CURRENT PERIOD IS:      19

 USING EXTINCTION WATER CONTENT FROM PREVIOUS STRESS PERIOD. CURRENT PERIOD IS:      19

 USING AIR ENTRY PRESSURE FROM PREVIOUS STRESS PERIOD. CURRENT PERIOD IS:      19

 USING ROOT PRESSURE HEAD FROM PREVIOUS STRESS PERIOD. CURRENT PERIOD IS:      19

 USING ROOT ACTIVITY FROM PREVIOUS STRESS PERIOD. CURRENT PERIOD IS:      19

 PROCESSING AG STRESS PERIOD DATA

 READING AG STRESS PERIOD DATA

 READING IRRIGATION SEGMENT

 READING IRRIGATION WELL

 READING SUPPLEMENTAL WELL

 NO IRRPOND OR REUSING IRRPOND DATA FROM LAST STRESS PERIOD

 END PROCESSING AG STRESS PERIOD DATA OPTIONS
 
 SOLVING FOR HEAD 
                                                   Max.-Head-Change                         Max.-Flux-Residual
  Residual-Control   Outer-Iter.   Inner-Iter.     Column Row Layer    Maximum-Head-Change  Column Row Layer    Maximum-Flux-Residual          L2-NORM 
          0                 1           2             5    8     1       0.1053782390E+00       5    8    1         0.5733867387E+01      0.1388373927E+02
          0                 2           2             4    7     1      -0.1870547712E+01       5    8    1        -0.1005733751E+03      0.2461714677E+03
          0                 3           2             4    7     1       0.1273577747E+00       5    8    1         0.7038664987E+01      0.1723626082E+02
          0                 4           2             4    7     1      -0.5067778412E-02       5    8    1        -0.2877673718E+00      0.7096653131E+00
          0                 5           1             7   13     1       0.9178984373E-04       7   13    1         0.5259163795E-02      0.1050162152E-01

    ------------------------------------------------
       NWT REQUIRED            5 OUTER ITERATIONS 
       AND A TOTAL OF          9 INNER ITERATIONS.
    ------------------------------------------------

 OUTPUT CONTROL FOR STRESS PERIOD   19   TIME STEP    1
    PRINT BUDGET
    SAVE BUDGET
 UBDSV1 SAVING "         STORAGE" ON UNIT 102 AT TIME STEP 1, STRESS PERIOD19
 UBDSV2 SAVING "   CONSTANT HEAD" ON UNIT 102 AT TIME STEP 1, STRESS PERIOD 19
 UBDSV1 SAVING "FLOW RIGHT FACE " ON UNIT 102 AT TIME STEP 1, STRESS PERIOD19
 UBDSV1 SAVING "FLOW FRONT FACE " ON UNIT 102 AT TIME STEP 1, STRESS PERIOD19

  HEAD DEP BOUNDS   PERIOD   19   STEP     1
 BOUNDARY      1   LAYER   1   ROW    13   COL     1   RATE   -0.292983    
 BOUNDARY      2   LAYER   1   ROW    14   COL     9   RATE    0.286286    



 STREAM LISTING     PERIOD     19   STEP        1

 LAYER ROW COL. STREAM  RCH.  FLOW INTO     FLOW TO   FLOW OUT OF   OVRLND.     DIRECT     STREAM       STREAM     STREAM     STREAM   STREAMBED  STREAMBED
                SEG.NO.  NO.  STRM. RCH.    AQUIFER    STRM. RCH.    RUNOFF     PRECIP       ET          HEAD       DEPTH      WIDTH   CONDCTNC.   GRADIENT

   1    1    1     1     1    4.3652E+01  3.1614E-01   4.3336E+01  0.000E+00  0.000E+00  0.000E+00  1.09441E+03  1.357E+00  1.612E+01  7.255E-02  1.452E+00
   1    2    2     1     2    4.3336E+01  4.8972E-01   4.2846E+01  0.000E+00  0.000E+00  0.000E+00  1.08941E+03  1.355E+00  1.607E+01  1.125E-01  1.452E+00
   1    3    3     1     3    4.2846E+01  4.1777E-01   4.2428E+01  0.000E+00  0.000E+00  0.000E+00  1.08377E+03  1.351E+00  1.600E+01  9.601E-02  1.450E+00
   1    3    4     1     4    4.2428E+01  3.8480E-01   4.2043E+01  0.000E+00  0.000E+00  0.000E+00  1.07876E+03  1.349E+00  1.594E+01  8.849E-02  1.450E+00
   1    4    5     2     1    4.0043E+01  3.5862E-01   3.9685E+01  0.000E+00  0.000E+00  0.000E+00  1.07353E+03  1.598E+00  1.200E+01  7.800E-02  1.533E+00
   1    5    6     2     2    3.9685E+01  2.7540E-01   3.9409E+01  0.000E+00  0.000E+00  0.000E+00  1.06810E+03  1.590E+00  1.200E+01  6.000E-02  1.530E+00
   1    6    6     2     3    3.9409E+01  2.7500E-01   3.9134E+01  0.000E+00  0.000E+00  0.000E+00  1.06338E+03  1.583E+00  1.200E+01  6.000E-02  1.528E+00
   1    7    6     2     4    3.9134E+01  2.7461E-01   3.8860E+01  0.000E+00  0.000E+00  0.000E+00  1.05865E+03  1.577E+00  1.200E+01  6.000E-02  1.526E+00
   1    8    6     2     5    3.8860E+01  2.7421E-01   3.8585E+01  0.000E+00  0.000E+00  0.000E+00  1.05393E+03  1.570E+00  1.200E+01  6.000E-02  1.523E+00
   1    3    5     3     1    2.0000E+00  2.8252E-01   1.7175E+00  0.000E+00  0.000E+00  0.000E+00  1.07555E+03  1.909E+00  9.636E+00  7.227E-02  1.955E+00
   1    3    6     3     2    1.7175E+00  2.4905E-01   1.4684E+00  0.000E+00  0.000E+00  0.000E+00  1.07264E+03  1.727E+00  8.909E+00  6.682E-02  1.864E+00
   1    3    7     3     3    1.4684E+00  1.9718E-01   1.2712E+00  0.000E+00  0.000E+00  0.000E+00  1.06987E+03  1.555E+00  8.218E+00  5.547E-02  1.777E+00
   1    4    8     3     4    1.2712E+00  2.2567E-01   1.0456E+00  0.000E+00  0.000E+00  0.000E+00  1.06682E+03  1.364E+00  7.455E+00  6.709E-02  1.682E+00
   1    5    8     3     5    1.0456E+00  1.5790E-01   8.8768E-01  0.000E+00  0.000E+00  0.000E+00  1.06362E+03  1.164E+00  6.655E+00  4.991E-02  1.582E+00
   1    6    8     3     6    8.8768E-01  5.5980E-02   8.3170E-01  0.000E+00  0.000E+00  0.000E+00  1.06158E+03  1.036E+00  6.145E+00  1.844E-02  1.518E+00
   1    5   10     4     1    1.0000E+01  9.0919E-02   9.9091E+00  0.000E+00  0.000E+00  0.000E+00  1.07836E+03  6.368E-01  1.000E+01  2.500E-02  1.212E+00
   1    5    9     4     2    9.9091E+00  1.8158E-01   9.7275E+00  0.000E+00  0.000E+00  0.000E+00  1.07154E+03  6.315E-01  1.000E+01  5.000E-02  1.211E+00
   1    6    8     4     3    9.7275E+00  1.2689E-01   9.6006E+00  0.000E+00  0.000E+00  0.000E+00  1.06381E+03  6.256E-01  1.000E+01  3.500E-02  1.209E+00
   1    6    8     5     1    1.0432E+01  2.2686E-01   1.0205E+01  0.000E+00  0.000E+00  0.000E+00  1.05868E+03  6.790E-01  1.542E+01  6.166E-02  1.226E+00
   1    7    7     5     2    1.0205E+01  2.7894E-01   9.9265E+00  0.000E+00  0.000E+00  0.000E+00  1.05417E+03  6.732E-01  1.519E+01  7.594E-02  1.224E+00
   1    8    7     5     3    9.9265E+00  1.9221E-01   9.7343E+00  0.000E+00  0.000E+00  0.000E+00  1.04992E+03  6.676E-01  1.497E+01  5.241E-02  1.223E+00
   1    8    6     5     4    9.7343E+00  1.3577E-01   9.5985E+00  0.000E+00  0.000E+00  0.000E+00  1.04691E+03  6.637E-01  1.482E+01  3.706E-02  1.221E+00
   1    9    6     6     1    9.5985E+00  2.2097E-01   9.3776E+00  0.000E+00  0.000E+00  0.000E+00  1.04341E+03  6.828E-01  1.200E+01  6.000E-02  1.228E+00
   1   10    7     6     2    9.3776E+00  2.2039E-01   9.1572E+00  0.000E+00  0.000E+00  0.000E+00  1.03885E+03  6.732E-01  1.200E+01  6.000E-02  1.224E+00
   1   11    7     6     3    9.1572E+00  2.1981E-01   8.9374E+00  0.000E+00  0.000E+00  0.000E+00  1.03430E+03  6.636E-01  1.200E+01  6.000E-02  1.221E+00
   1   12    7     6     4    8.9374E+00  2.1923E-01   8.7181E+00  0.000E+00  0.000E+00  0.000E+00  1.02974E+03  6.539E-01  1.200E+01  6.000E-02  1.218E+00
   1   13    7     6     5    8.7181E+00 -8.4244E-02   8.8024E+00  0.000E+00  0.000E+00  0.000E+00  1.02656E+03  6.508E-01  1.200E+01  2.400E-01 -1.170E-01
   1   14    9     7     1    1.5000E+02  1.3436E+00   1.4866E+02  0.000E+00  0.000E+00  0.000E+00  1.03987E+03  2.288E+00  5.529E+01  5.593E-01  8.007E-01
   1   13    8     7     2    1.4866E+02  1.8808E+00   1.4678E+02  0.000E+00  0.000E+00  0.000E+00  1.03478E+03  2.279E+00  5.526E+01  6.148E-01  1.020E+00
   1   13    7     7     3    1.4678E+02  1.5515E+00   1.4522E+02  0.000E+00  0.000E+00  0.000E+00  1.02969E+03  2.270E+00  5.521E+01  5.584E-01  9.261E-01
   1   13    6     8     1    1.5403E+02  8.9813E-01   1.5313E+02  0.000E+00  0.000E+00  0.000E+00  1.02472E+03  2.842E+00  4.121E+01  4.199E-01  7.129E-01
   1   13    5     8     2    1.5313E+02  1.6539E-01   1.5296E+02  0.000E+00  0.000E+00  0.000E+00  1.01846E+03  2.838E+00  4.115E+01  4.194E-01  1.315E-01
   1   13    4     8     3    1.5296E+02 -2.8982E+00   1.5586E+02  0.000E+00  0.000E+00  0.000E+00  1.01222E+03  2.848E+00  4.129E+01  4.208E+00 -2.296E-01
   1   13    3     8     4    1.5586E+02 -4.1519E+00   1.6001E+02  0.000E+00  0.000E+00  0.000E+00  1.00600E+03  2.872E+00  4.164E+01  4.243E+00 -3.261E-01
   1   13    2     8     5    1.6001E+02 -3.2302E+00   1.6324E+02  0.000E+00  0.000E+00  0.000E+00  9.99772E+02  2.897E+00  4.200E+01  4.280E+00 -2.515E-01
   1   13    1     8     6    1.6324E+02 -2.3768E+00   1.6562E+02  0.000E+00  0.000E+00  0.000E+00  9.94791E+02  2.916E+00  4.228E+01  2.585E+00 -3.065E-01
   1    8    6     9     1    3.8585E+01  0.0000E+00   3.8585E+01  0.000E+00  0.000E+00  0.000E+00  1.08384E+03  5.095E+00  4.000E+00  0.000E+00  2.698E+00
   1    8    5     9     2    3.8585E+01  0.0000E+00   3.8585E+01  0.000E+00  0.000E+00  0.000E+00  1.08334E+03  5.095E+00  4.000E+00  0.000E+00  2.698E+00



 UBDSV3 SAVING "           GW ET" ON UNIT  61 AT TIME STEP 1, STRESS PERIOD 19
 UBDSV3 SAVING "    UZF RECHARGE" ON UNIT  61 AT TIME STEP 1, STRESS PERIOD 19
 UBDSV3 SAVING " SURFACE LEAKAGE" ON UNIT  61 AT TIME STEP 1, STRESS PERIOD 19
 UBDSV3 SAVING "       HORT+DUNN" ON UNIT  61 AT TIME STEP 1, STRESS PERIOD 19
 UBDSV3 SAVING "  STORAGE CHANGE" ON UNIT  61 AT TIME STEP 1, STRESS PERIOD 19


UNSATURATED ZONE PACKAGE VOLUMETRIC BUDGET FOR  TIME STEP     1 STRESS PERIOD   19
  ------------------------------------------------------------------------------



     CUMULATIVE VOLUMES      L**3       RATES FOR THIS TIME STEP      L**3/T
     ------------------                 ------------------------

           IN:                                      IN:
           ---                                      ---
        INFILTRATION =  3056877883.2539          INFILTRATION =         639.4337

          OUT:                                     OUT:
          ----                                     ----
              UZF ET =   474569182.8235                UZF ET =          23.3175
        UZF RECHARGE =  1862092798.7207          UZF RECHARGE =       0.0000E+00

            IN - OUT =   720215901.7097              IN - OUT =         616.1162

          STORAGE:                                 STORAGE:
          --------                                 --------
      STORAGE CHANGE =   721053010.4691        STORAGE CHANGE =         616.1162

 PERCENT DISCREPANCY IS DIFFERENCE BETWEEN IN-OUT MINUS CHANGE IN STORAGE
 DIVIDED BY THE AVERAGE OF IN AND OUT TIMES 100

 PERCENT DISCREPANCY =          -0.01     PERCENT DISCREPANCY =           0.00






 

            AG WELLS      PERIOD   19   STEP   1
 AG WELL      1   LAYER   1   ROW     6   COL     4   RATE    -100.000    
 AG WELL      2   LAYER   1   ROW     6   COL     5   RATE    -100.000    
 AG WELL      3   LAYER   1   ROW     7   COL     4   RATE    -100.000    
 AG WELL      4   LAYER   1   ROW     7   COL     5   RATE    -100.000    
 AG WELL      5   LAYER   1   ROW     8   COL     4   RATE    -100.000    
 AG WELL      6   LAYER   1   ROW     8   COL     5   RATE    -100.000    
 
 

   DIVERSION SEGMENTS     PERIOD   19   STEP   1
 SEGMENT      9   RATE     38.5855    
 
 

        SW IRRIGATION     PERIOD   19   STEP   1
 SEGMENT      9   ROW     6   COL     4   RATE     6.43104    
 SEGMENT      9   ROW     6   COL     5   RATE     6.43104    
 SEGMENT      9   ROW     7   COL     4   RATE     6.43104    
 SEGMENT      9   ROW     7   COL     5   RATE     6.43104    
 SEGMENT      9   ROW     8   COL     4   RATE     6.43104    
 SEGMENT      9   ROW     8   COL     5   RATE     6.43104    
 
 

        GW IRRIGATION     PERIOD   19   STEP   1
 AG WELL      1   ROW     6   COL     4   RATE     100.000    
 AG WELL      2   ROW     6   COL     5   RATE     100.000    
 AG WELL      3   ROW     7   COL     4   RATE     100.000    
 AG WELL      4   ROW     7   COL     5   RATE     100.000    
 AG WELL      5   ROW     8   COL     4   RATE     100.000    
 AG WELL      6   ROW     8   COL     5   RATE     100.000    
 
1
  VOLUMETRIC BUDGET FOR AGRICULTURAL FIELDS AT  END OF TIME STEP    1, STRESS PERIOD  19
  ------------------------------------------------------------------------------

     CUMULATIVE VOLUMES      L**3       RATES FOR THIS TIME STEP      L**3/T
     ------------------                 ------------------------

           IN:                                      IN:
           ---                                      ---
               AG WELLS  =  2631320576.0000                 AG WELLS  =         600.0000
      DIVERSION SEGMENTS =   387533728.0000        DIVERSION SEGMENTS =          38.5855
       IRRIGATION PONDS  =           0.0000         IRRIGATION PONDS  =           0.0000
           GW IRRIGATION =           0.0000             GW IRRIGATION =           0.0000
           SW IRRIGATION =           0.0000             SW IRRIGATION =           0.0000
        SYSTEM LOSSES GW =           0.0000          SYSTEM LOSSES GW =           0.0000
        SYSTEM LOSSES SW =           0.0000          SYSTEM LOSSES SW =           0.0000

                TOTAL IN =  3018854400.0000                  TOTAL IN =         638.5855

          OUT:                                     OUT:
          ----                                     ----
               AG WELLS  =           0.0000                 AG WELLS  =           0.0000
      DIVERSION SEGMENTS =           0.0000        DIVERSION SEGMENTS =           0.0000
       IRRIGATION PONDS  =           0.0000         IRRIGATION PONDS  =           0.0000
           GW IRRIGATION =  2631320576.0000             GW IRRIGATION =         600.0000
           SW IRRIGATION =   387541472.0000             SW IRRIGATION =          38.5863
        SYSTEM LOSSES GW =           0.0000          SYSTEM LOSSES GW =           0.0000
        SYSTEM LOSSES SW =           0.0000          SYSTEM LOSSES SW =           0.0000

               TOTAL OUT =  3018862080.0000                 TOTAL OUT =         638.5862

                IN - OUT =       -7680.0000                  IN - OUT =      -7.3242E-04

     PERCENT DISCREPANCY =          -0.00         PERCENT DISCREPANCY =          -0.00



1
  VOLUMETRIC BUDGET FOR ENTIRE MODEL AT END OF TIME STEP    1, STRESS PERIOD  19
  ------------------------------------------------------------------------------

     CUMULATIVE VOLUMES      L**3       RATES FOR THIS TIME STEP      L**3/T
     ------------------                 ------------------------

           IN:                                      IN:
           ---                                      ---
             STORAGE     =  2927363840.0000               STORAGE     =         601.0012
       CONSTANT HEAD     =           0.0000         CONSTANT HEAD     =           0.0000
     HEAD DEP BOUNDS     =    12829568.0000       HEAD DEP BOUNDS     =           0.2863
      STREAM LEAKAGE     =   547588928.0000        STREAM LEAKAGE     =          12.1875
        UZF RECHARGE     =  1862092672.0000          UZF RECHARGE     =           0.0000
               GW ET     =           0.0000                 GW ET     =           0.0000
     SURFACE LEAKAGE     =           0.0000       SURFACE LEAKAGE     =           0.0000
           AG WELLS      =           0.0000             AG WELLS      =           0.0000

                TOTAL IN =  5349874688.0000                  TOTAL IN =         613.4751

          OUT:                                     OUT:
          ----                                     ----
             STORAGE     =  2234065152.0000               STORAGE     =           0.4407
       CONSTANT HEAD     =           0.0000         CONSTANT HEAD     =           0.0000
     HEAD DEP BOUNDS     =    13068899.0000       HEAD DEP BOUNDS     =           0.2930
      STREAM LEAKAGE     =   470023520.0000        STREAM LEAKAGE     =          12.7412
        UZF RECHARGE     =           0.0000          UZF RECHARGE     =           0.0000
               GW ET     =     1320838.1250                 GW ET     =           0.0000
     SURFACE LEAKAGE     =           0.0000       SURFACE LEAKAGE     =           0.0000
           AG WELLS      =  2631320576.0000             AG WELLS      =         600.0000

               TOTAL OUT =  5349798912.0000                 TOTAL OUT =         613.4749

                IN - OUT =       75776.0000                  IN - OUT =       1.8311E-04

     PERCENT DISCREPANCY =           0.00         PERCENT DISCREPANCY =           0.00






         TIME SUMMARY AT END OF TIME STEP    1 IN STRESS PERIOD   19
                    SECONDS     MINUTES      HOURS       DAYS        YEARS
                    -----------------------------------------------------------
   TIME STEP LENGTH  87667.      1461.1      24.352      1.0147     2.77799E-03
 STRESS PERIOD TIME  87667.      1461.1      24.352      1.0147     2.77799E-03
         TOTAL TIME 4.48841E+07 7.48069E+05  12468.      519.49      1.4223    
1
 
 SOLVING FOR HEAD 
                                                   Max.-Head-Change                         Max.-Flux-Residual
  Residual-Control   Outer-Iter.   Inner-Iter.     Column Row Layer    Maximum-Head-Change  Column Row Layer    Maximum-Flux-Residual          L2-NORM 
          0                 1           2             5    8     1       0.1547392496E+00       5    8    1         0.8455009183E+01      0.1939159974E+02
          0                 2           2             5    8     1      -0.8315598810E-01       5    8    1        -0.4595479039E+01      0.1091534257E+02
          0                 3           2             4    7     1       0.5346862329E-01       5    8    1         0.2978029216E+01      0.7285086131E+01
          0                 4           2             4    7     1      -0.2127581765E-02       5    8    1        -0.1217830973E+00      0.3091195014E+00
          0                 5           1             7   13     1       0.9249904628E-04       7   13    1         0.5299473392E-02      0.6686705353E-02

    ------------------------------------------------
       NWT REQUIRED            5 OUTER ITERATIONS 
       AND A TOTAL OF          9 INNER ITERATIONS.
    ------------------------------------------------

 NO OUTPUT CONTROL FOR STRESS PERIOD   19   TIME STEP    2
 
 SOLVING FOR HEAD 
                                                   Max.-Head-Change                         Max.-Flux-Residual
  Residual-Control   Outer-Iter.   Inner-Iter.     Column Row Layer    Maximum-Head-Change  Column Row Layer    Maximum-Flux-Residual          L2-NORM 
          0                 1           2             5    8     1       0.1478913540E+00       5    8    1         0.8073627198E+01      0.1872097519E+02
          0                 2           2             5    8     1      -0.1438550056E-01       5    8    1        -0.8073423252E+00      0.1881009701E+01
          0                 3           2             5    8     1       0.9796021454E-03       5    8    1         0.5651418010E-01      0.1316698779E+00
          0                 4           1             5    8     1      -0.3897927261E-04       5    8    1        -0.2311432292E-02      0.5385206985E-02

    ------------------------------------------------
       NWT REQUIRED            4 OUTER ITERATIONS 
       AND A TOTAL OF          7 INNER ITERATIONS.
    ------------------------------------------------

 NO OUTPUT CONTROL FOR STRESS PERIOD   19   TIME STEP    3
 
 SOLVING FOR HEAD 
     PET DIFF ERROR     6    4    0.2245362952E-08    0.1500000053E-06
     PET DIFF ERROR     6    5    0.2245359664E-08    0.1500000053E-06
     PET DIFF ERROR     7    4    0.2245356377E-08    0.1500000053E-06
     PET DIFF ERROR     7    5    0.2245356377E-08    0.1500000053E-06
     PET DIFF ERROR     8    4    0.2245362952E-08    0.1500000053E-06
     PET DIFF ERROR     8    5    0.2245359664E-08    0.1500000053E-06
                                                   Max.-Head-Change                         Max.-Flux-Residual
  Residual-Control   Outer-Iter.   Inner-Iter.     Column Row Layer    Maximum-Head-Change  Column Row Layer    Maximum-Flux-Residual          L2-NORM 
          0                 1           2             5    8     1       0.1409072038E+00       5    8    1         0.7685204111E+01      0.1802420368E+02
     PET DIFF ERROR     6    4    0.2245362952E-08    0.1500000053E-06
     PET DIFF ERROR     6    5    0.2245359664E-08    0.1500000053E-06
     PET DIFF ERROR     7    4    0.2245356377E-08    0.1500000053E-06
     PET DIFF ERROR     7    5    0.2245356377E-08    0.1500000053E-06
     PET DIFF ERROR     8    4    0.2245362952E-08    0.1500000053E-06
     PET DIFF ERROR     8    5    0.2245359664E-08    0.1500000053E-06
          0                 2           2             5    8     1      -0.1370585265E-01       5    8    1        -0.7685015279E+00      0.1802210841E+01
     PET DIFF ERROR     6    4    0.2245362952E-08    0.1500000053E-06
     PET DIFF ERROR     6    5    0.2245359664E-08    0.1500000053E-06
     PET DIFF ERROR     7    4    0.2245356377E-08    0.1500000053E-06
     PET DIFF ERROR     7    5    0.2245356377E-08    0.1500000053E-06
     PET DIFF ERROR     8    4    0.2245362952E-08    0.1500000053E-06
     PET DIFF ERROR     8    5    0.2245359664E-08    0.1500000053E-06
          0                 3           2             5    8     1       0.9333204174E-03       5    8    1         0.5379530829E-01      0.1261546154E+00
     PET DIFF ERROR     6    4    0.2245362952E-08    0.1500000053E-06
     PET DIFF ERROR     6    5    0.2245359664E-08    0.1500000053E-06
     PET DIFF ERROR     7    4    0.2245356377E-08    0.1500000053E-06
     PET DIFF ERROR     7    5    0.2245356377E-08    0.1500000053E-06
     PET DIFF ERROR     8    4    0.2245362952E-08    0.1500000053E-06
     PET DIFF ERROR     8    5    0.2245359664E-08    0.1500000053E-06
          0                 4           1             5    8     1      -0.3713768069E-04       5    8    1        -0.2200230354E-02      0.5159664456E-02

    ------------------------------------------------
       NWT REQUIRED            4 OUTER ITERATIONS 
       AND A TOTAL OF          7 INNER ITERATIONS.
    ------------------------------------------------

 NO OUTPUT CONTROL FOR STRESS PERIOD   19   TIME STEP    4
     PET DIFF ERROR     6    4    0.2245362952E-08    0.1500000053E-06
     PET DIFF ERROR     6    5    0.2245359664E-08    0.1500000053E-06
     PET DIFF ERROR     7    4    0.2245356377E-08    0.1500000053E-06
     PET DIFF ERROR     7    5    0.2245356377E-08    0.1500000053E-06
     PET DIFF ERROR     8    4    0.2245362952E-08    0.1500000053E-06
     PET DIFF ERROR     8    5    0.2245359664E-08    0.1500000053E-06
 
 SOLVING FOR HEAD 
                                                   Max.-Head-Change                         Max.-Flux-Residual
  Residual-Control   Outer-Iter.   Inner-Iter.     Column Row Layer    Maximum-Head-Change  Column Row Layer    Maximum-Flux-Residual          L2-NORM 
          0                 1           2             5    8     1       0.1343780133E+00       5    8    1         0.7322299372E+01      0.1737086880E+02
          0                 2           2             4    7     1      -0.1871815996E+01       5    8    1        -0.1007322124E+03      0.2464598217E+03
          0                 3           2             4    7     1       0.1274444356E+00       5    8    1         0.7049148555E+01      0.1725931623E+02
          0                 4           2             4    7     1      -0.5071226011E-02       5    8    1        -0.2882019480E+00      0.7107490351E+00
          0                 5           1             7   13     1       0.9097595959E-04       7   13    1         0.5212940860E-02      0.1052122704E-01

    ------------------------------------------------
       NWT REQUIRED            5 OUTER ITERATIONS 
       AND A TOTAL OF          9 INNER ITERATIONS.
    ------------------------------------------------

 NO OUTPUT CONTROL FOR STRESS PERIOD   19   TIME STEP    5
 
 SOLVING FOR HEAD 
                                                   Max.-Head-Change                         Max.-Flux-Residual
  Residual-Control   Outer-Iter.   Inner-Iter.     Column Row Layer    Maximum-Head-Change  Column Row Layer    Maximum-Flux-Residual          L2-NORM 
          0                 1           2             5    8     1       0.1822697388E+00       5    8    1         0.9961887302E+01      0.2276901091E+02
          0                 2           2             5    8     1      -0.8583480192E-01       5    8    1        -0.4746158727E+01      0.1121249711E+02
          0                 3           2             4    7     1       0.5355252925E-01       5    8    1         0.2988576847E+01      0.7304866636E+01
          0                 4           2             4    7     1      -0.2130920212E-02       5    8    1        -0.1222182260E+00      0.3097865068E+00
          0                 5           1             7   13     1       0.9184360838E-04       7   13    1         0.5261941061E-02      0.6664274318E-02

    ------------------------------------------------
       NWT REQUIRED            5 OUTER ITERATIONS 
       AND A TOTAL OF          9 INNER ITERATIONS.
    ------------------------------------------------

 NO OUTPUT CONTROL FOR STRESS PERIOD   19   TIME STEP    6
 
 SOLVING FOR HEAD 
                                                   Max.-Head-Change                         Max.-Flux-Residual
  Residual-Control   Outer-Iter.   Inner-Iter.     Column Row Layer    Maximum-Head-Change  Column Row Layer    Maximum-Flux-Residual          L2-NORM 
          0                 1           2             5    8     1       0.1740517749E+00       5    8    1         0.9504177433E+01      0.2196323744E+02
          0                 2           2             5    8     1      -0.1693008702E-01       5    8    1        -0.9503897752E+00      0.2203891735E+01
          0                 3           2             5    8     1       0.1152880117E-02       5    8    1         0.6652757756E-01      0.1542707785E+00
          0                 4           1             5    8     1      -0.4587416063E-04       5    8    1        -0.2720980485E-02      0.6309515063E-02

    ------------------------------------------------
       NWT REQUIRED            4 OUTER ITERATIONS 
       AND A TOTAL OF          7 INNER ITERATIONS.
    ------------------------------------------------

 NO OUTPUT CONTROL FOR STRESS PERIOD   19   TIME STEP    7
 
 SOLVING FOR HEAD 
     PET DIFF ERROR     6    4    0.2245356377E-08    0.1500000053E-06
     PET DIFF ERROR     6    5    0.2245356377E-08    0.1500000053E-06
     PET DIFF ERROR     7    4    0.2245362902E-08    0.1500000053E-06
     PET DIFF ERROR     7    5    0.2245356377E-08    0.1500000053E-06
     PET DIFF ERROR     8    4    0.2245359664E-08    0.1500000053E-06
     PET DIFF ERROR     8    5    0.2245359664E-08    0.1500000053E-06
                                                   Max.-Head-Change                         Max.-Flux-Residual
  Residual-Control   Outer-Iter.   Inner-Iter.     Column Row Layer    Maximum-Head-Change  Column Row Layer    Maximum-Flux-Residual          L2-NORM 
          0                 1           2             5    8     1       0.1657896026E+00       5    8    1         0.9044598797E+01      0.2113948133E+02
     PET DIFF ERROR     6    4    0.2245356377E-08    0.1500000053E-06
     PET DIFF ERROR     6    5    0.2245356377E-08    0.1500000053E-06
     PET DIFF ERROR     7    4    0.2245362902E-08    0.1500000053E-06
     PET DIFF ERROR     7    5    0.2245356377E-08    0.1500000053E-06
     PET DIFF ERROR     8    4    0.2245359664E-08    0.1500000053E-06
     PET DIFF ERROR     8    5    0.2245359664E-08    0.1500000053E-06
          0                 2           2             5    8     1      -0.1612642255E-01       5    8    1        -0.9044339660E+00      0.2114031083E+01
     PET DIFF ERROR     6    4    0.2245356377E-08    0.1500000053E-06
     PET DIFF ERROR     6    5    0.2245356377E-08    0.1500000053E-06
     PET DIFF ERROR     7    4    0.2245362902E-08    0.1500000053E-06
     PET DIFF ERROR     7    5    0.2245356377E-08    0.1500000053E-06
     PET DIFF ERROR     8    4    0.2245359664E-08    0.1500000053E-06
     PET DIFF ERROR     8    5    0.2245359664E-08    0.1500000053E-06
          0                 3           2             5    8     1       0.1098153256E-02       5    8    1         0.6331065011E-01      0.1479814504E+00
     PET DIFF ERROR     6    4    0.2245356377E-08    0.1500000053E-06
     PET DIFF ERROR     6    5    0.2245356377E-08    0.1500000053E-06
     PET DIFF ERROR     7    4    0.2245362902E-08    0.1500000053E-06
     PET DIFF ERROR     7    5    0.2245356377E-08    0.1500000053E-06
     PET DIFF ERROR     8    4    0.2245359664E-08    0.1500000053E-06
     PET DIFF ERROR     8    5    0.2245359664E-08    0.1500000053E-06
          0                 4           1             5    8     1      -0.4369652898E-04       5    8    1        -0.2589408063E-02      0.6052337076E-02

    ------------------------------------------------
       NWT REQUIRED            4 OUTER ITERATIONS 
       AND A TOTAL OF          7 INNER ITERATIONS.
    ------------------------------------------------

 NO OUTPUT CONTROL FOR STRESS PERIOD   19   TIME STEP    8
     PET DIFF ERROR     6    4    0.2245356377E-08    0.1500000053E-06
     PET DIFF ERROR     6    5    0.2245356377E-08    0.1500000053E-06
     PET DIFF ERROR     7    4    0.2245362902E-08    0.1500000053E-06
     PET DIFF ERROR     7    5    0.2245356377E-08    0.1500000053E-06
     PET DIFF ERROR     8    4    0.2245359664E-08    0.1500000053E-06
     PET DIFF ERROR     8    5    0.2245359664E-08    0.1500000053E-06
 
 SOLVING FOR HEAD 
                                                   Max.-Head-Change                         Max.-Flux-Residual
  Residual-Control   Outer-Iter.   Inner-Iter.     Column Row Layer    Maximum-Head-Change  Column Row Layer    Maximum-Flux-Residual          L2-NORM 
          0                 1           2             5    8     1       0.3873841331E+00       5    8    1         0.2126945071E+02      0.2815974200E+02
          0                 2           2             4    7     1      -0.1873037073E+01       5    6    1        -0.1008490480E+03      0.2425966717E+03
          0                 3           2             5    8     1      -0.3159651699E+00       5    8    1        -0.1813594835E+02      0.2403287035E+02
          0                 4           2             5    8     1       0.2151046384E-01       5    8    1         0.1262915405E+01      0.1423538832E+01
          0                 5           1             5    8     1      -0.8561614665E-03       5    8    1        -0.5140910957E-01      0.5245694846E-01
          0                 6           1             5    8     1       0.1056462801E-04       5    8    1         0.6475517957E-03      0.6965968310E-03

    ------------------------------------------------
       NWT REQUIRED            6 OUTER ITERATIONS 
       AND A TOTAL OF         10 INNER ITERATIONS.
    ------------------------------------------------

 NO OUTPUT CONTROL FOR STRESS PERIOD   19   TIME STEP    9
 
 SOLVING FOR HEAD 
                                                   Max.-Head-Change                         Max.-Flux-Residual
  Residual-Control   Outer-Iter.   Inner-Iter.     Column Row Layer    Maximum-Head-Change  Column Row Layer    Maximum-Flux-Residual          L2-NORM 
          0                 1           2             5    8     1       0.2048299164E+00       5    8    1         0.1119216136E+02      0.2564965210E+02
          0                 2           2             5    8     1      -0.8802996975E-01       5    8    1        -0.4869178131E+01      0.1147420255E+02
          0                 3           2             4    7     1       0.5363948788E-01       5    8    1         0.2997188294E+01      0.7322306028E+01
          0                 4           2             4    7     1      -0.2134380210E-02       5    8    1        -0.1225732474E+00      0.3103674947E+00
          0                 5           1             7   13     1       0.9123452594E-04       7   13    1         0.5227063709E-02      0.6642626522E-02

    ------------------------------------------------
       NWT REQUIRED            5 OUTER ITERATIONS 
       AND A TOTAL OF          9 INNER ITERATIONS.
    ------------------------------------------------

 NO OUTPUT CONTROL FOR STRESS PERIOD   19   TIME STEP   10
 
 SOLVING FOR HEAD 
                                                   Max.-Head-Change                         Max.-Flux-Residual
  Residual-Control   Outer-Iter.   Inner-Iter.     Column Row Layer    Maximum-Head-Change  Column Row Layer    Maximum-Flux-Residual          L2-NORM 
          0                 1           2             5    8     1       0.3976147315E+00       5    8    1         0.2182465164E+02      0.3121434111E+02
          0                 2           2             5    8     1       0.1754936074E+00       5    8    1         0.9694913536E+01      0.9950084594E+01
          0                 3           2             5    8     1       0.7745420357E-01       5    8    1         0.4272849621E+01      0.4275788174E+01
          0                 4           2             5    8     1       0.3418459196E-01       5    8    1         0.1886174099E+01      0.1886189289E+01
          0                 5           2             5    8     1       0.1508745003E-01       5    8    1         0.8324713062E+00      0.8324747657E+00
          0                 6           2             5    8     1       0.6658882497E-02       5    8    1         0.3674131010E+00      0.3674145799E+00
          0                 7           1             5    8     1       0.2938914036E-02       5    8    1         0.1621589254E+00      0.1621595749E+00
          0                 8           1             5    8     1       0.1297096914E-02       5    8    1         0.7156926166E-01      0.7156954853E-01
          0                 9           1             5    8     1       0.5724769089E-03       5    8    1         0.3158727650E-01      0.3158740301E-01
          0                10           1             5    8     1       0.2526640913E-03       5    8    1         0.1394112349E-01      0.1394117931E-01
                                                   Max.-Head-Change                         Max.-Flux-Residual
  Residual-Control   Outer-Iter.   Inner-Iter.     Column Row Layer    Maximum-Head-Change  Column Row Layer    Maximum-Flux-Residual          L2-NORM 
          0                11           1             5    8     1       0.1115139179E-03       5    8    1         0.6152949486E-02      0.6152974113E-02
          0                12           1             5    8     1       0.4921694227E-04       5    8    1         0.2715619494E-02      0.2715630362E-02

    ------------------------------------------------
       NWT REQUIRED           12 OUTER ITERATIONS 
       AND A TOTAL OF         18 INNER ITERATIONS.
    ------------------------------------------------

 NO OUTPUT CONTROL FOR STRESS PERIOD   19   TIME STEP   11
 
 SOLVING FOR HEAD 
     PET DIFF ERROR     6    4    0.2245362987E-08    0.1500000053E-06
     PET DIFF ERROR     6    5    0.2245356362E-08    0.1500000053E-06
     PET DIFF ERROR     7    4    0.2245362952E-08    0.1500000053E-06
     PET DIFF ERROR     7    5    0.2245362902E-08    0.1500000053E-06
     PET DIFF ERROR     8    4    0.2245356377E-08    0.1500000053E-06
     PET DIFF ERROR     8    5    0.2245359664E-08    0.1500000053E-06
                                                   Max.-Head-Change                         Max.-Flux-Residual
  Residual-Control   Outer-Iter.   Inner-Iter.     Column Row Layer    Maximum-Head-Change  Column Row Layer    Maximum-Flux-Residual          L2-NORM 
          0                 1           2             5    8     1       0.5120161305E+00       5    8    1         0.2810751961E+02      0.3552704329E+02
     PET DIFF ERROR     6    4    0.2245362987E-08    0.1500000053E-06
     PET DIFF ERROR     6    5    0.2245356362E-08    0.1500000053E-06
     PET DIFF ERROR     7    4    0.2245362952E-08    0.1500000053E-06
     PET DIFF ERROR     7    5    0.2245362902E-08    0.1500000053E-06
     PET DIFF ERROR     8    4    0.2245356377E-08    0.1500000053E-06
     PET DIFF ERROR     8    5    0.2245359664E-08    0.1500000053E-06
          0                 2           2             5    8     1       0.2259549403E+00       5    8    1         0.1248369493E+02      0.1267131190E+02
     PET DIFF ERROR     6    4    0.2245362987E-08    0.1500000053E-06
     PET DIFF ERROR     6    5    0.2245356362E-08    0.1500000053E-06
     PET DIFF ERROR     7    4    0.2245362952E-08    0.1500000053E-06
     PET DIFF ERROR     7    5    0.2245362902E-08    0.1500000053E-06
     PET DIFF ERROR     8    4    0.2245356377E-08    0.1500000053E-06
     PET DIFF ERROR     8    5    0.2245359664E-08    0.1500000053E-06
          0                 3           2             5    8     1       0.9971168176E-01       5    8    1         0.5501298819E+01      0.5503483642E+01
     PET DIFF ERROR     6    4    0.2245362987E-08    0.1500000053E-06
     PET DIFF ERROR     6    5    0.2245356362E-08    0.1500000053E-06
     PET DIFF ERROR     7    4    0.2245362952E-08    0.1500000053E-06
     PET DIFF ERROR     7    5    0.2245362902E-08    0.1500000053E-06
     PET DIFF ERROR     8    4    0.2245356377E-08    0.1500000053E-06
     PET DIFF ERROR     8    5    0.2245359664E-08    0.1500000053E-06
          0                 4           2             5    8     1       0.4400195817E-01       5    8    1         0.2428134327E+01      0.2428147314E+01
     PET DIFF ERROR     6    4    0.2245362987E-08    0.1500000053E-06
     PET DIFF ERROR     6    5    0.2245356362E-08    0.1500000053E-06
     PET DIFF ERROR     7    4    0.2245362952E-08    0.1500000053E-06
     PET DIFF ERROR     7    5    0.2245362902E-08    0.1500000053E-06
     PET DIFF ERROR     8    4    0.2245356377E-08    0.1500000053E-06
     PET DIFF ERROR     8    5    0.2245359664E-08    0.1500000053E-06
          0                 5           2             5    8     1       0.1941771162E-01       5    8    1         0.1071516232E+01      0.1071520720E+01
     PET DIFF ERROR     6    4    0.2245362987E-08    0.1500000053E-06
     PET DIFF ERROR     6    5    0.2245356362E-08    0.1500000053E-06
     PET DIFF ERROR     7    4    0.2245362952E-08    0.1500000053E-06
     PET DIFF ERROR     7    5    0.2245362902E-08    0.1500000053E-06
     PET DIFF ERROR     8    4    0.2245356377E-08    0.1500000053E-06
     PET DIFF ERROR     8    5    0.2245359664E-08    0.1500000053E-06
          0                 6           2             5    8     1       0.8568882128E-02       5    8    1         0.4728524523E+00      0.4728543626E+00
     PET DIFF ERROR     6    4    0.2245362987E-08    0.1500000053E-06
     PET DIFF ERROR     6    5    0.2245356362E-08    0.1500000053E-06
     PET DIFF ERROR     7    4    0.2245362952E-08    0.1500000053E-06
     PET DIFF ERROR     7    5    0.2245362902E-08    0.1500000053E-06
     PET DIFF ERROR     8    4    0.2245356377E-08    0.1500000053E-06
     PET DIFF ERROR     8    5    0.2245359664E-08    0.1500000053E-06
          0                 7           1             5    8     1       0.3781380004E-02       5    8    1         0.2086663800E+00      0.2086672215E+00
     PET DIFF ERROR     6    4    0.2245362987E-08    0.1500000053E-06
     PET DIFF ERROR     6    5    0.2245356362E-08    0.1500000053E-06
     PET DIFF ERROR     7    4    0.2245362952E-08    0.1500000053E-06
     PET DIFF ERROR     7    5    0.2245362902E-08    0.1500000053E-06
     PET DIFF ERROR     8    4    0.2245356377E-08    0.1500000053E-06
     PET DIFF ERROR     8    5    0.2245359664E-08    0.1500000053E-06
          0                 8           1             5    8     1       0.1668693186E-02       5    8    1         0.9208287289E-01      0.9208324422E-01
     PET DIFF ERROR     6    4    0.2245362987E-08    0.1500000053E-06
     PET DIFF ERROR     6    5    0.2245356362E-08    0.1500000053E-06
     PET DIFF ERROR     7    4    0.2245362952E-08    0.1500000053E-06
     PET DIFF ERROR     7    5    0.2245362902E-08    0.1500000053E-06
     PET DIFF ERROR     8    4    0.2245356377E-08    0.1500000053E-06
     PET DIFF ERROR     8    5    0.2245359664E-08    0.1500000053E-06
          0                 9           1             5    8     1       0.7363811586E-03       5    8    1         0.4063545737E-01      0.4063562112E-01
     PET DIFF ERROR     6    4    0.2245362987E-08    0.1500000053E-06
     PET DIFF ERROR     6    5    0.2245356362E-08    0.1500000053E-06
     PET DIFF ERROR     7    4    0.2245362952E-08    0.1500000053E-06
     PET DIFF ERROR     7    5    0.2245362902E-08    0.1500000053E-06
     PET DIFF ERROR     8    4    0.2245356377E-08    0.1500000053E-06
     PET DIFF ERROR     8    5    0.2245359664E-08    0.1500000053E-06
          0                10           1             5    8     1       0.3249592072E-03       5    8    1         0.1793210956E-01      0.1793218178E-01
     PET DIFF ERROR     6    4    0.2245362987E-08    0.1500000053E-06
     PET DIFF ERROR     6    5    0.2245356362E-08    0.1500000053E-06
     PET DIFF ERROR     7    4    0.2245362952E-08    0.1500000053E-06
     PET DIFF ERROR     7    5    0.2245362902E-08    0.1500000053E-06
     PET DIFF ERROR     8    4    0.2245356377E-08    0.1500000053E-06
     PET DIFF ERROR     8    5    0.2245359664E-08    0.1500000053E-06
                                                   Max.-Head-Change                         Max.-Flux-Residual
  Residual-Control   Outer-Iter.   Inner-Iter.     Column Row Layer    Maximum-Head-Change  Column Row Layer    Maximum-Flux-Residual          L2-NORM 
          0                11           1             5    8     1       0.1434019399E-03       5    8    1         0.7913299293E-02      0.7913331151E-02
     PET DIFF ERROR     6    4    0.2245362987E-08    0.1500000053E-06
     PET DIFF ERROR     6    5    0.2245356362E-08    0.1500000053E-06
     PET DIFF ERROR     7    4    0.2245362952E-08    0.1500000053E-06
     PET DIFF ERROR     7    5    0.2245362902E-08    0.1500000053E-06
     PET DIFF ERROR     8    4    0.2245356377E-08    0.1500000053E-06
     PET DIFF ERROR     8    5    0.2245359664E-08    0.1500000053E-06
          0                12           1             5    8     1       0.6328214739E-04       5    8    1         0.3492076820E-02      0.3492090873E-02

    ------------------------------------------------
       NWT REQUIRED           12 OUTER ITERATIONS 
       AND A TOTAL OF         18 INNER ITERATIONS.
    ------------------------------------------------

 NO OUTPUT CONTROL FOR STRESS PERIOD   19   TIME STEP   12
     PET DIFF ERROR     6    4    0.2245362987E-08    0.1500000053E-06
     PET DIFF ERROR     6    5    0.2245356362E-08    0.1500000053E-06
     PET DIFF ERROR     7    4    0.2245362952E-08    0.1500000053E-06
     PET DIFF ERROR     7    5    0.2245362902E-08    0.1500000053E-06
     PET DIFF ERROR     8    4    0.2245356377E-08    0.1500000053E-06
     PET DIFF ERROR     8    5    0.2245359664E-08    0.1500000053E-06
 
 SOLVING FOR HEAD 
                                                   Max.-Head-Change                         Max.-Flux-Residual
  Residual-Control   Outer-Iter.   Inner-Iter.     Column Row Layer    Maximum-Head-Change  Column Row Layer    Maximum-Flux-Residual          L2-NORM 
          0                 1           2             5    8     1       0.8099115637E+00       5    8    1         0.4450986689E+02      0.4936173374E+02
          0                 2           2             4    7     1      -0.1874433633E+01       5    6    1        -0.1009566125E+03      0.2393117802E+03
          0                 3           2             5    8     1      -0.7294309988E+00       5    8    1        -0.4159768032E+02      0.4449358347E+02
          0                 4           2             5    8     1      -0.2365036095E+00       5    8    1        -0.1340760112E+02      0.1342415191E+02
          0                 5           2             5    8     1       0.1610617864E-01       5    8    1         0.9392634313E+00      0.9393779687E+00
          0                 6           1             5    8     1      -0.6412009034E-03       5    8    1        -0.3842996170E-01      0.3845506162E-01
          0                 7           1             5    8     1       0.7917996008E-05       5    8    1         0.4865784183E-03      0.4908189144E-03

    ------------------------------------------------
       NWT REQUIRED            7 OUTER ITERATIONS 
       AND A TOTAL OF         12 INNER ITERATIONS.
    ------------------------------------------------

 NO OUTPUT CONTROL FOR STRESS PERIOD   19   TIME STEP   13
 
 SOLVING FOR HEAD 
                                                   Max.-Head-Change                         Max.-Flux-Residual
  Residual-Control   Outer-Iter.   Inner-Iter.     Column Row Layer    Maximum-Head-Change  Column Row Layer    Maximum-Flux-Residual          L2-NORM 
          0                 1           2             5    8     1       0.3501658561E+00       5    8    1         0.1914031430E+02      0.3207079924E+02
          0                 2           2             5    6     1      -0.8959241242E-01       5    6    1        -0.4947381969E+01      0.1170527443E+02
          0                 3           2             5    8     1       0.8689621604E-01       5    8    1         0.4705620763E+01      0.8189465883E+01
          0                 4           2             5    8     1       0.3834945622E-01       5    8    1         0.2119711315E+01      0.2138439009E+01
          0                 5           2             5    8     1       0.1692443766E-01       5    8    1         0.9338087911E+00      0.9338480261E+00
          0                 6           2             5    8     1       0.7469120872E-02       5    8    1         0.4121157657E+00      0.4121227072E+00
          0                 7           1             5    8     1       0.3296285003E-02       5    8    1         0.1818760787E+00      0.1818790802E+00
          0                 8           1             5    8     1       0.1454722090E-02       5    8    1         0.8026588925E-01      0.8026721369E-01
          0                 9           1             5    8     1       0.6420004291E-03       5    8    1         0.3542308772E-01      0.3542367200E-01
          0                10           1             5    8     1       0.2833287237E-03       5    8    1         0.1563297917E-01      0.1563323700E-01
                                                   Max.-Head-Change                         Max.-Flux-Residual
  Residual-Control   Outer-Iter.   Inner-Iter.     Column Row Layer    Maximum-Head-Change  Column Row Layer    Maximum-Flux-Residual          L2-NORM 
          0                11           1             5    8     1       0.1250391156E-03       5    8    1         0.6899173467E-02      0.6899287340E-02
          0                12           1             5    8     1       0.5518247583E-04       5    8    1         0.3044755132E-02      0.3044805359E-02

    ------------------------------------------------
       NWT REQUIRED           12 OUTER ITERATIONS 
       AND A TOTAL OF         18 INNER ITERATIONS.
    ------------------------------------------------

 NO OUTPUT CONTROL FOR STRESS PERIOD   19   TIME STEP   14
 
 SOLVING FOR HEAD 
                                                   Max.-Head-Change                         Max.-Flux-Residual
  Residual-Control   Outer-Iter.   Inner-Iter.     Column Row Layer    Maximum-Head-Change  Column Row Layer    Maximum-Flux-Residual          L2-NORM 
          0                 1           2             5    8     1       0.4735890969E+00       5    8    1         0.2592801740E+02      0.3865285495E+02
          0                 2           2             5    8     1       0.2090265280E+00       5    8    1         0.1155392826E+02      0.1425663548E+02
          0                 3           2             5    8     1       0.9225400578E-01       5    8    1         0.5088755653E+01      0.6204060077E+01
          0                 4           2             5    8     1       0.4071655628E-01       5    8    1         0.2246560867E+01      0.2738791088E+01
          0                 5           2             5    8     1       0.1797036786E-01       5    8    1         0.9915172990E+00      0.1209087963E+01
          0                 6           2             5    8     1       0.7931275512E-02       5    8    1         0.4376100474E+00      0.5337781133E+00
          0                 7           2             5    8     1       0.3500492922E-02       5    8    1         0.1931407910E+00      0.2356480758E+00
          0                 8           2             5    8     1       0.1544953645E-02       5    8    1         0.8524332601E-01      0.1040319439E+00
          0                 9           2             5    8     1       0.6818703050E-03       5    8    1         0.3762242261E-01      0.4592716101E-01
          0                10           2             5    8     1       0.3009457212E-03       5    8    1         0.1660478057E-01      0.2027554615E-01
                                                   Max.-Head-Change                         Max.-Flux-Residual
  Residual-Control   Outer-Iter.   Inner-Iter.     Column Row Layer    Maximum-Head-Change  Column Row Layer    Maximum-Flux-Residual          L2-NORM 
          0                11           1             5    8     1       0.1328234105E-03       5    8    1         0.7328575611E-02      0.8951084005E-02
          0                12           1             5    8     1       0.5862207367E-04       5    8    1         0.3234491772E-02      0.3951653067E-02

    ------------------------------------------------
       NWT REQUIRED           12 OUTER ITERATIONS 
       AND A TOTAL OF         22 INNER ITERATIONS.
    ------------------------------------------------

 NO OUTPUT CONTROL FOR STRESS PERIOD   19   TIME STEP   15
 
 SOLVING FOR HEAD 
     PET DIFF ERROR     6    4    0.2245356377E-08    0.1500000053E-06
     PET DIFF ERROR     6    5    0.2245356377E-08    0.1500000053E-06
     PET DIFF ERROR     7    4    0.2245356377E-08    0.1500000053E-06
     PET DIFF ERROR     7    5    0.2245356377E-08    0.1500000053E-06
     PET DIFF ERROR     8    4    0.2245362952E-08    0.1500000053E-06
     PET DIFF ERROR     8    5    0.2245359664E-08    0.1500000053E-06
                                                   Max.-Head-Change                         Max.-Flux-Residual
  Residual-Control   Outer-Iter.   Inner-Iter.     Column Row Layer    Maximum-Head-Change  Column Row Layer    Maximum-Flux-Residual          L2-NORM 
          0                 1           2             5    6     1       0.5391277289E+00       5    6    1         0.2942427294E+02      0.5127686137E+02
     PET DIFF ERROR     6    4    0.2245356377E-08    0.1500000053E-06
     PET DIFF ERROR     6    5    0.2245356377E-08    0.1500000053E-06
     PET DIFF ERROR     7    4    0.2245356377E-08    0.1500000053E-06
     PET DIFF ERROR     7    5    0.2245356377E-08    0.1500000053E-06
     PET DIFF ERROR     8    4    0.2245362952E-08    0.1500000053E-06
     PET DIFF ERROR     8    5    0.2245359664E-08    0.1500000053E-06
          0                 2           2             5    6     1       0.2408725172E+00       5    6    1         0.1316203653E+02      0.2217357194E+02
     PET DIFF ERROR     6    4    0.2245356377E-08    0.1500000053E-06
     PET DIFF ERROR     6    5    0.2245356377E-08    0.1500000053E-06
     PET DIFF ERROR     7    4    0.2245356377E-08    0.1500000053E-06
     PET DIFF ERROR     7    5    0.2245356377E-08    0.1500000053E-06
     PET DIFF ERROR     8    4    0.2245362952E-08    0.1500000053E-06
     PET DIFF ERROR     8    5    0.2245359664E-08    0.1500000053E-06
          0                 3           2             5    6     1       0.1076670175E+00       5    6    1         0.5878885014E+01      0.1005748489E+02
     PET DIFF ERROR     6    4    0.2245356377E-08    0.1500000053E-06
     PET DIFF ERROR     6    5    0.2245356377E-08    0.1500000053E-06
     PET DIFF ERROR     7    4    0.2245356377E-08    0.1500000053E-06
     PET DIFF ERROR     7    5    0.2245356377E-08    0.1500000053E-06
     PET DIFF ERROR     8    4    0.2245362952E-08    0.1500000053E-06
     PET DIFF ERROR     8    5    0.2245359664E-08    0.1500000053E-06
          0                 4           2             5    6     1       0.4814895640E-01       5    6    1         0.2628135516E+01      0.4575538082E+01
     PET DIFF ERROR     6    4    0.2245356377E-08    0.1500000053E-06
     PET DIFF ERROR     6    5    0.2245356377E-08    0.1500000053E-06
     PET DIFF ERROR     7    4    0.2245356377E-08    0.1500000053E-06
     PET DIFF ERROR     7    5    0.2245356377E-08    0.1500000053E-06
     PET DIFF ERROR     8    4    0.2245362952E-08    0.1500000053E-06
     PET DIFF ERROR     8    5    0.2245359664E-08    0.1500000053E-06
          0                 5           2             5    6     1       0.2154248989E-01       5    6    1         0.1175424768E+01      0.2082488389E+01
     PET DIFF ERROR     6    4    0.2245356377E-08    0.1500000053E-06
     PET DIFF ERROR     6    5    0.2245356377E-08    0.1500000053E-06
     PET DIFF ERROR     7    4    0.2245356377E-08    0.1500000053E-06
     PET DIFF ERROR     7    5    0.2245356377E-08    0.1500000053E-06
     PET DIFF ERROR     8    4    0.2245362952E-08    0.1500000053E-06
     PET DIFF ERROR     8    5    0.2245359664E-08    0.1500000053E-06
          0                 6           2             5    6     1       0.9642883264E-02       5    6    1         0.5259460420E+00      0.9481078040E+00
     PET DIFF ERROR     6    4    0.2245356377E-08    0.1500000053E-06
     PET DIFF ERROR     6    5    0.2245356377E-08    0.1500000053E-06
     PET DIFF ERROR     7    4    0.2245356377E-08    0.1500000053E-06
     PET DIFF ERROR     7    5    0.2245356377E-08    0.1500000053E-06
     PET DIFF ERROR     8    4    0.2245362952E-08    0.1500000053E-06
     PET DIFF ERROR     8    5    0.2245359664E-08    0.1500000053E-06
          0                 7           2             4    8     1       0.4406186532E-02       4    8    1         0.2358584362E+00      0.4317800370E+00
     PET DIFF ERROR     6    4    0.2245356377E-08    0.1500000053E-06
     PET DIFF ERROR     6    5    0.2245356377E-08    0.1500000053E-06
     PET DIFF ERROR     7    4    0.2245356377E-08    0.1500000053E-06
     PET DIFF ERROR     7    5    0.2245356377E-08    0.1500000053E-06
     PET DIFF ERROR     8    4    0.2245362952E-08    0.1500000053E-06
     PET DIFF ERROR     8    5    0.2245359664E-08    0.1500000053E-06
          0                 8           2             4    8     1       0.2018140148E-02       4    8    1         0.1080310901E+00      0.1966915757E+00
     PET DIFF ERROR     6    4    0.2245356377E-08    0.1500000053E-06
     PET DIFF ERROR     6    5    0.2245356377E-08    0.1500000053E-06
     PET DIFF ERROR     7    4    0.2245356377E-08    0.1500000053E-06
     PET DIFF ERROR     7    5    0.2245356377E-08    0.1500000053E-06
     PET DIFF ERROR     8    4    0.2245362952E-08    0.1500000053E-06
     PET DIFF ERROR     8    5    0.2245359664E-08    0.1500000053E-06
          0                 9           2             4    8     1       0.9243365099E-03       4    8    1         0.4948063861E-01      0.8962272862E-01
     PET DIFF ERROR     6    4    0.2245356377E-08    0.1500000053E-06
     PET DIFF ERROR     6    5    0.2245356377E-08    0.1500000053E-06
     PET DIFF ERROR     7    4    0.2245356377E-08    0.1500000053E-06
     PET DIFF ERROR     7    5    0.2245356377E-08    0.1500000053E-06
     PET DIFF ERROR     8    4    0.2245362952E-08    0.1500000053E-06
     PET DIFF ERROR     8    5    0.2245359664E-08    0.1500000053E-06
          0                10           2             4    8     1       0.4233508540E-03       4    8    1         0.2266273802E-01      0.4084614561E-01
     PET DIFF ERROR     6    4    0.2245356377E-08    0.1500000053E-06
     PET DIFF ERROR     6    5    0.2245356377E-08    0.1500000053E-06
     PET DIFF ERROR     7    4    0.2245356377E-08    0.1500000053E-06
     PET DIFF ERROR     7    5    0.2245356377E-08    0.1500000053E-06
     PET DIFF ERROR     8    4    0.2245362952E-08    0.1500000053E-06
     PET DIFF ERROR     8    5    0.2245359664E-08    0.1500000053E-06
                                                   Max.-Head-Change                         Max.-Flux-Residual
  Residual-Control   Outer-Iter.   Inner-Iter.     Column Row Layer    Maximum-Head-Change  Column Row Layer    Maximum-Flux-Residual          L2-NORM 
          0                11           2             4    8     1       0.1938935606E-03       4    8    1         0.1037961415E-01      0.1861986671E-01
     PET DIFF ERROR     6    4    0.2245356377E-08    0.1500000053E-06
     PET DIFF ERROR     6    5    0.2245356377E-08    0.1500000053E-06
     PET DIFF ERROR     7    4    0.2245356377E-08    0.1500000053E-06
     PET DIFF ERROR     7    5    0.2245356377E-08    0.1500000053E-06
     PET DIFF ERROR     8    4    0.2245362952E-08    0.1500000053E-06
     PET DIFF ERROR     8    5    0.2245359664E-08    0.1500000053E-06
          0                12           1             4    8     1       0.8880137494E-04       4    8    1         0.4753821094E-02      0.8489601755E-02

    ------------------------------------------------
       NWT REQUIRED           12 OUTER ITERATIONS 
       AND A TOTAL OF         23 INNER ITERATIONS.
    ------------------------------------------------

 NO OUTPUT CONTROL FOR STRESS PERIOD   19   TIME STEP   16
     PET DIFF ERROR     6    4    0.2245356377E-08    0.1500000053E-06
     PET DIFF ERROR     6    5    0.2245356377E-08    0.1500000053E-06
     PET DIFF ERROR     7    4    0.2245356377E-08    0.1500000053E-06
     PET DIFF ERROR     7    5    0.2245356377E-08    0.1500000053E-06
     PET DIFF ERROR     8    4    0.2245362952E-08    0.1500000053E-06
     PET DIFF ERROR     8    5    0.2245359664E-08    0.1500000053E-06
 
 SOLVING FOR HEAD 
                                                   Max.-Head-Change                         Max.-Flux-Residual
  Residual-Control   Outer-Iter.   Inner-Iter.     Column Row Layer    Maximum-Head-Change  Column Row Layer    Maximum-Flux-Residual          L2-NORM 
          0                 1           2             5    8     1       0.7593105064E+00       5    8    1         0.4107895910E+02      0.6624493432E+02
          0                 2           2             5    8     1       0.2807276292E+00       5    8    1         0.1518508651E+02      0.2351918792E+02
          0                 3           2             5    8     1       0.1832854846E+00       5    8    1         0.9884658035E+01      0.1693414695E+02
          0                 4           2             5    8     1       0.8322065621E-01       5    8    1         0.4486526498E+01      0.7451394122E+01
          0                 5           2             5    8     1       0.3780008429E-01       5    8    1         0.2037267128E+01      0.3397319702E+01
          0                 6           2             5    8     1       0.1717533602E-01       5    8    1         0.9254182506E+00      0.1550237807E+01
          0                 7           2             5    8     1       0.7806585489E-02       5    8    1         0.4205114767E+00      0.7074734240E+00
          0                 8           2             5    8     1       0.3549386170E-02       5    8    1         0.1911434685E+00      0.3228976667E+00
          0                 9           2             5    8     1       0.1614264797E-02       5    8    1         0.8691124843E-01      0.1473870479E+00
          0                10           2             5    8     1       0.7343770636E-03       5    8    1         0.3952943789E-01      0.6728066031E-01
                                                   Max.-Head-Change                         Max.-Flux-Residual
  Residual-Control   Outer-Iter.   Inner-Iter.     Column Row Layer    Maximum-Head-Change  Column Row Layer    Maximum-Flux-Residual          L2-NORM 
          0                11           2             5    8     1       0.3341795955E-03       5    8    1         0.1798402506E-01      0.3071530787E-01
          0                12           2             5    8     1       0.1521077039E-03       5    8    1         0.8184054577E-02      0.1402331415E-01
          0                13           1             5    8     1       0.6925118024E-04       5    8    1         0.3725285010E-02      0.6402879403E-02

    ------------------------------------------------
       NWT REQUIRED           13 OUTER ITERATIONS 
       AND A TOTAL OF         25 INNER ITERATIONS.
    ------------------------------------------------

 NO OUTPUT CONTROL FOR STRESS PERIOD   19   TIME STEP   17
 
 SOLVING FOR HEAD 
                                                   Max.-Head-Change                         Max.-Flux-Residual
  Residual-Control   Outer-Iter.   Inner-Iter.     Column Row Layer    Maximum-Head-Change  Column Row Layer    Maximum-Flux-Residual          L2-NORM 
          0                 1           2             5    7     1       0.8890847675E+00       5    7    1         0.4800225528E+02      0.8575308036E+02
          0                 2           2             5    7     1       0.4024001131E+00       5    7    1         0.2175692435E+02      0.3872821031E+02
          0                 3           2             5    7     1       0.1822470012E+00       5    7    1         0.9844194046E+01      0.1766253853E+02
          0                 4           2             5    7     1       0.8268007346E-01       5    7    1         0.4459574171E+01      0.8073357639E+01
          0                 5           2             5    7     1       0.3758455561E-01       5    7    1         0.2023840583E+01      0.3703856196E+01
          0                 6           2             4    8     1       0.1714532984E-01       5    7    1         0.9203372358E+00      0.1708873361E+01
          0                 7           2             4    8     1       0.7850571680E-02       4    8    1         0.4202103500E+00      0.7953884295E+00
          0                 8           2             4    8     1       0.3604935443E-02       4    8    1         0.1924911890E+00      0.3751495440E+00
          0                 9           2             4    8     1       0.1661163186E-02       4    8    1         0.8843752109E-01      0.1803432795E+00
          0                10           2             4    7     1       0.8935967770E-03       4    7    1         0.4715312574E-01      0.8892591308E-01
                                                   Max.-Head-Change                         Max.-Flux-Residual
  Residual-Control   Outer-Iter.   Inner-Iter.     Column Row Layer    Maximum-Head-Change  Column Row Layer    Maximum-Flux-Residual          L2-NORM 
          0                11           2             4    7     1       0.5396855063E-03       4    7    1         0.2868029819E-01      0.4521487813E-01
          0                12           2             4    7     1       0.3238739883E-03       4    7    1         0.1730116474E-01      0.2375837081E-01
          0                13           1             4    7     1       0.1934454024E-03       4    7    1         0.1037374306E-01      0.1287734366E-01
          0                14           1             4    7     1       0.1151332009E-03       4    7    1         0.6192091721E-02      0.7163000335E-02
          0                15           1             4    7     1       0.6834056858E-04       4    7    1         0.3683563391E-02      0.4063015156E-02

    ------------------------------------------------
       NWT REQUIRED           15 OUTER ITERATIONS 
       AND A TOTAL OF         27 INNER ITERATIONS.
    ------------------------------------------------

 NO OUTPUT CONTROL FOR STRESS PERIOD   19   TIME STEP   18
 
 SOLVING FOR HEAD 
                                                   Max.-Head-Change                         Max.-Flux-Residual
  Residual-Control   Outer-Iter.   Inner-Iter.     Column Row Layer    Maximum-Head-Change  Column Row Layer    Maximum-Flux-Residual          L2-NORM 
          0                 1           2             4    6     1       0.9179714620E+00       4    6    1         0.4919894151E+02      0.7857625660E+02
          0                 2           2             5    8     1      -0.1656143780E+01       5    8    1        -0.9128592742E+02      0.2112255117E+03
          0                 3           2             4    7     1      -0.7278507429E+00       4    7    1        -0.3940392486E+02      0.7551917225E+02
          0                 4           2             4    6     1      -0.3175064081E+00       4    6    1        -0.1775410717E+02      0.1885471713E+02
          0                 5           2             4    6     1      -0.4425660299E-01       4    6    1        -0.2484270123E+01      0.2515232469E+01
          0                 6           2             4    6     1       0.3014924100E-02       4    6    1         0.1739313573E+00      0.1746529389E+00
          0                 7           2             4    6     1      -0.1200523433E-03       4    6    1        -0.7113607224E-02      0.7120703098E-02
          0                 8           1             4    6     1       0.1483593940E-05       4    6    1         0.9018096398E-04      0.9049698885E-04

    ------------------------------------------------
       NWT REQUIRED            8 OUTER ITERATIONS 
       AND A TOTAL OF         15 INNER ITERATIONS.
    ------------------------------------------------

 NO OUTPUT CONTROL FOR STRESS PERIOD   19   TIME STEP   19
 
 SOLVING FOR HEAD 
                                                   Max.-Head-Change                         Max.-Flux-Residual
  Residual-Control   Outer-Iter.   Inner-Iter.     Column Row Layer    Maximum-Head-Change  Column Row Layer    Maximum-Flux-Residual          L2-NORM 
          0                 1           2             4    6     1       0.4475545447E+00       4    6    1         0.2420496471E+02      0.3144066798E+02
          0                 2           2             4    6     1       0.1317756060E+00       4    6    1         0.7198837152E+01      0.1164860326E+02
          0                 3           2             4    6     1       0.1096538819E+00       4    6    1         0.5874536529E+01      0.9309842007E+01
          0                 4           2             4    6     1       0.4970886366E-01       4    6    1         0.2685284905E+01      0.3319826338E+01
          0                 5           2             4    6     1       0.2253812466E-01       4    6    1         0.1216467513E+01      0.1506289764E+01
          0                 6           2             4    6     1       0.1022052830E-01       4    6    1         0.5515659772E+00      0.6861851675E+00
          0                 7           2             4    6     1       0.4635525841E-02       4    6    1         0.2501302896E+00      0.3126147207E+00
          0                 8           2             4    6     1       0.2102776793E-02       4    6    1         0.1134500235E+00      0.1424324890E+00
          0                 9           2             4    6     1       0.9540129775E-03       4    6    1         0.5146489779E-01      0.6489907769E-01
          0                10           2             4    6     1       0.4328932104E-03       4    6    1         0.2334985958E-01      0.2957303707E-01
                                                   Max.-Head-Change                         Max.-Flux-Residual
  Residual-Control   Outer-Iter.   Inner-Iter.     Column Row Layer    Maximum-Head-Change  Column Row Layer    Maximum-Flux-Residual          L2-NORM 
          0                11           2             4    6     1       0.1964586321E-03       4    6    1         0.1059552621E-01      0.1347657492E-01
          0                12           1             4    6     1       0.8917103068E-04       4    6    1         0.4808663134E-02      0.6141687041E-02

    ------------------------------------------------
       NWT REQUIRED           12 OUTER ITERATIONS 
       AND A TOTAL OF         23 INNER ITERATIONS.
    ------------------------------------------------

 NO OUTPUT CONTROL FOR STRESS PERIOD   19   TIME STEP   20
 
 SOLVING FOR HEAD 
                                                   Max.-Head-Change                         Max.-Flux-Residual
  Residual-Control   Outer-Iter.   Inner-Iter.     Column Row Layer    Maximum-Head-Change  Column Row Layer    Maximum-Flux-Residual          L2-NORM 
          0                 1           2             4    7     1       0.5872386875E+00       4    7    1         0.3100861134E+02      0.5519470032E+02
          0                 2           2             4    7     1       0.2736475912E+00       4    7    1         0.1444089605E+02      0.2534137267E+02
          0                 3           2             4    7     1       0.1274984792E+00       4    7    1         0.6730221644E+01      0.1178219194E+02
          0                 4           2             4    7     1       0.5939663990E-01       4    7    1         0.3135627237E+01      0.5478186999E+01
          0                 5           2             4    7     1       0.2766734155E-01       4    7    1         0.1460743952E+01      0.2547468972E+01
          0                 6           2             4    7     1       0.1288624535E-01       4    7    1         0.6804105674E+00      0.1184670303E+01
          0                 7           2             4    7     1       0.6001268215E-02       4    7    1         0.3168999770E+00      0.5509431286E+00
          0                 8           2             4    7     1       0.2794610125E-02       4    7    1         0.1475813949E+00      0.2562325912E+00
          0                 9           2             4    7     1       0.1301261240E-02       4    7    1         0.6872316934E-01      0.1191733287E+00
          0                10           2             4    7     1       0.6058652527E-03       4    7    1         0.3199929462E-01      0.5542932800E-01
                                                   Max.-Head-Change                         Max.-Flux-Residual
  Residual-Control   Outer-Iter.   Inner-Iter.     Column Row Layer    Maximum-Head-Change  Column Row Layer    Maximum-Flux-Residual          L2-NORM 
          0                11           2             4    7     1       0.2820712435E-03       4    7    1         0.1489863432E-01      0.2578189691E-01
          0                12           2             4    7     1       0.1313153421E-03       4    7    1         0.6936241970E-02      0.1199233621E-01
          0                13           1             4    7     1       0.6112916464E-04       4    7    1         0.3229061830E-02      0.5578346046E-02

    ------------------------------------------------
       NWT REQUIRED           13 OUTER ITERATIONS 
       AND A TOTAL OF         25 INNER ITERATIONS.
    ------------------------------------------------

 NO OUTPUT CONTROL FOR STRESS PERIOD   19   TIME STEP   21
 
 SOLVING FOR HEAD 
     PET DIFF ERROR     6    4    0.2245362917E-08    0.1500000053E-06
     PET DIFF ERROR     6    5    0.2245362952E-08    0.1500000053E-06
     PET DIFF ERROR     7    4    0.2245356377E-08    0.1500000053E-06
     PET DIFF ERROR     7    5    0.2245356327E-08    0.1500000053E-06
     PET DIFF ERROR     8    4    0.2245359664E-08    0.1500000053E-06
     PET DIFF ERROR     8    5    0.2245362952E-08    0.1500000053E-06
                                                   Max.-Head-Change                         Max.-Flux-Residual
  Residual-Control   Outer-Iter.   Inner-Iter.     Column Row Layer    Maximum-Head-Change  Column Row Layer    Maximum-Flux-Residual          L2-NORM 
          0                 1           2             4    7     1       0.5714640342E+00       4    7    1         0.2999554448E+02      0.6391263134E+02
     PET DIFF ERROR     6    4    0.2245362917E-08    0.1500000053E-06
     PET DIFF ERROR     6    5    0.2245362952E-08    0.1500000053E-06
     PET DIFF ERROR     7    4    0.2245356377E-08    0.1500000053E-06
     PET DIFF ERROR     7    5    0.2245356327E-08    0.1500000053E-06
     PET DIFF ERROR     8    4    0.2245359664E-08    0.1500000053E-06
     PET DIFF ERROR     8    5    0.2245362952E-08    0.1500000053E-06
          0                 2           2             4    7     1       0.2681669965E+00       4    7    1         0.1407111853E+02      0.2950846099E+02
     PET DIFF ERROR     6    4    0.2245362917E-08    0.1500000053E-06
     PET DIFF ERROR     6    5    0.2245362952E-08    0.1500000053E-06
     PET DIFF ERROR     7    4    0.2245356377E-08    0.1500000053E-06
     PET DIFF ERROR     7    5    0.2245356327E-08    0.1500000053E-06
     PET DIFF ERROR     8    4    0.2245359664E-08    0.1500000053E-06
     PET DIFF ERROR     8    5    0.2245362952E-08    0.1500000053E-06
          0                 3           2             4    7     1       0.1257922284E+00       4    7    1         0.6603519841E+01      0.1371943411E+02
     PET DIFF ERROR     6    4    0.2245362917E-08    0.1500000053E-06
     PET DIFF ERROR     6    5    0.2245362952E-08    0.1500000053E-06
     PET DIFF ERROR     7    4    0.2245356377E-08    0.1500000053E-06
     PET DIFF ERROR     7    5    0.2245356327E-08    0.1500000053E-06
     PET DIFF ERROR     8    4    0.2245359664E-08    0.1500000053E-06
     PET DIFF ERROR     8    5    0.2245362952E-08    0.1500000053E-06
          0                 4           2             4    7     1       0.5898521122E-01       4    7    1         0.3097333326E+01      0.6377028087E+01
     PET DIFF ERROR     6    4    0.2245362917E-08    0.1500000053E-06
     PET DIFF ERROR     6    5    0.2245362952E-08    0.1500000053E-06
     PET DIFF ERROR     7    4    0.2245356377E-08    0.1500000053E-06
     PET DIFF ERROR     7    5    0.2245356327E-08    0.1500000053E-06
     PET DIFF ERROR     8    4    0.2245359664E-08    0.1500000053E-06
     PET DIFF ERROR     8    5    0.2245362952E-08    0.1500000053E-06
          0                 5           2             4    7     1       0.2764906550E-01       4    7    1         0.1452284296E+01      0.2964573144E+01
     PET DIFF ERROR     6    4    0.2245362917E-08    0.1500000053E-06
     PET DIFF ERROR     6    5    0.2245362952E-08    0.1500000053E-06
     PET DIFF ERROR     7    4    0.2245356377E-08    0.1500000053E-06
     PET DIFF ERROR     7    5    0.2245356327E-08    0.1500000053E-06
     PET DIFF ERROR     8    4    0.2245359664E-08    0.1500000053E-06
     PET DIFF ERROR     8    5    0.2245362952E-08    0.1500000053E-06
          0                 6           2             4    7     1       0.1295604957E-01       4    7    1         0.6807108285E+00      0.1378275133E+01
     PET DIFF ERROR     6    4    0.2245362917E-08    0.1500000053E-06
     PET DIFF ERROR     6    5    0.2245362952E-08    0.1500000053E-06
     PET DIFF ERROR     7    4    0.2245356377E-08    0.1500000053E-06
     PET DIFF ERROR     7    5    0.2245356327E-08    0.1500000053E-06
     PET DIFF ERROR     8    4    0.2245359664E-08    0.1500000053E-06
     PET DIFF ERROR     8    5    0.2245362952E-08    0.1500000053E-06
          0                 7           2             4    7     1       0.6069124926E-02       4    7    1         0.3189552107E+00      0.6408265967E+00
     PET DIFF ERROR     6    4    0.2245362917E-08    0.1500000053E-06
     PET DIFF ERROR     6    5    0.2245362952E-08    0.1500000053E-06
     PET DIFF ERROR     7    4    0.2245356377E-08    0.1500000053E-06
     PET DIFF ERROR     7    5    0.2245356327E-08    0.1500000053E-06
     PET DIFF ERROR     8    4    0.2245359664E-08    0.1500000053E-06
     PET DIFF ERROR     8    5    0.2245362952E-08    0.1500000053E-06
          0                 8           2             4    7     1       0.2842150707E-02       4    7    1         0.1494029152E+00      0.2979700895E+00
     PET DIFF ERROR     6    4    0.2245362917E-08    0.1500000053E-06
     PET DIFF ERROR     6    5    0.2245362952E-08    0.1500000053E-06
     PET DIFF ERROR     7    4    0.2245356377E-08    0.1500000053E-06
     PET DIFF ERROR     7    5    0.2245356327E-08    0.1500000053E-06
     PET DIFF ERROR     8    4    0.2245359664E-08    0.1500000053E-06
     PET DIFF ERROR     8    5    0.2245362952E-08    0.1500000053E-06
          0                 9           2             4    7     1       0.1330581941E-02       4    7    1         0.6996116425E-01      0.1385574727E+00
     PET DIFF ERROR     6    4    0.2245362917E-08    0.1500000053E-06
     PET DIFF ERROR     6    5    0.2245362952E-08    0.1500000053E-06
     PET DIFF ERROR     7    4    0.2245356377E-08    0.1500000053E-06
     PET DIFF ERROR     7    5    0.2245356327E-08    0.1500000053E-06
     PET DIFF ERROR     8    4    0.2245359664E-08    0.1500000053E-06
     PET DIFF ERROR     8    5    0.2245362952E-08    0.1500000053E-06
          0                10           2             4    7     1       0.6227522854E-03       4    7    1         0.3275137133E-01      0.6443325898E-01
     PET DIFF ERROR     6    4    0.2245362917E-08    0.1500000053E-06
     PET DIFF ERROR     6    5    0.2245362952E-08    0.1500000053E-06
     PET DIFF ERROR     7    4    0.2245356377E-08    0.1500000053E-06
     PET DIFF ERROR     7    5    0.2245356327E-08    0.1500000053E-06
     PET DIFF ERROR     8    4    0.2245359664E-08    0.1500000053E-06
     PET DIFF ERROR     8    5    0.2245362952E-08    0.1500000053E-06
                                                   Max.-Head-Change                         Max.-Flux-Residual
  Residual-Control   Outer-Iter.   Inner-Iter.     Column Row Layer    Maximum-Head-Change  Column Row Layer    Maximum-Flux-Residual          L2-NORM 
          0                11           2             4    7     1       0.2913893397E-03       4    7    1         0.1532788067E-01      0.2996477730E-01
     PET DIFF ERROR     6    4    0.2245362917E-08    0.1500000053E-06
     PET DIFF ERROR     6    5    0.2245362952E-08    0.1500000053E-06
     PET DIFF ERROR     7    4    0.2245356377E-08    0.1500000053E-06
     PET DIFF ERROR     7    5    0.2245356327E-08    0.1500000053E-06
     PET DIFF ERROR     8    4    0.2245359664E-08    0.1500000053E-06
     PET DIFF ERROR     8    5    0.2245362952E-08    0.1500000053E-06
          0                12           2             4    7     1       0.1363081477E-03       4    7    1         0.7171669990E-02      0.1393576956E-01
     PET DIFF ERROR     6    4    0.2245362917E-08    0.1500000053E-06
     PET DIFF ERROR     6    5    0.2245362952E-08    0.1500000053E-06
     PET DIFF ERROR     7    4    0.2245356377E-08    0.1500000053E-06
     PET DIFF ERROR     7    5    0.2245356327E-08    0.1500000053E-06
     PET DIFF ERROR     8    4    0.2245359664E-08    0.1500000053E-06
     PET DIFF ERROR     8    5    0.2245362952E-08    0.1500000053E-06
          0                13           1             4    7     1       0.6374773735E-04       4    7    1         0.3354665417E-02      0.6481390283E-02

    ------------------------------------------------
       NWT REQUIRED           13 OUTER ITERATIONS 
       AND A TOTAL OF         25 INNER ITERATIONS.
    ------------------------------------------------

 NO OUTPUT CONTROL FOR STRESS PERIOD   19   TIME STEP   22
     PET DIFF ERROR     6    4    0.2245362917E-08    0.1500000053E-06
     PET DIFF ERROR     6    5    0.2245362952E-08    0.1500000053E-06
     PET DIFF ERROR     7    4    0.2245356377E-08    0.1500000053E-06
     PET DIFF ERROR     7    5    0.2245356327E-08    0.1500000053E-06
     PET DIFF ERROR     8    4    0.2245359664E-08    0.1500000053E-06
     PET DIFF ERROR     8    5    0.2245362952E-08    0.1500000053E-06
 
 SOLVING FOR HEAD 
                                                   Max.-Head-Change                         Max.-Flux-Residual
  Residual-Control   Outer-Iter.   Inner-Iter.     Column Row Layer    Maximum-Head-Change  Column Row Layer    Maximum-Flux-Residual          L2-NORM 
          0                 1           2             4    7     1       0.5591484814E+00       4    7    1         0.2936462543E+02      0.6097730711E+02
          0                 2           2             5    8     1      -0.1656653967E+01       5    8    1        -0.9130830990E+02      0.2170953676E+03
          0                 3           2             4    7     1      -0.5664853074E+00       4    7    1        -0.3049996608E+02      0.6699928815E+02
          0                 4           2             4    7     1       0.3857714956E-01       4    7    1         0.2135013531E+01      0.4690631360E+01
          0                 5           2             4    7     1      -0.1535403630E-02       4    7    1        -0.8734060119E-01      0.1919285493E+00
          0                 6           1             4    7     1       0.1894621720E-04       4    7    1         0.1107459177E-02      0.2448996512E-02

    ------------------------------------------------
       NWT REQUIRED            6 OUTER ITERATIONS 
       AND A TOTAL OF         11 INNER ITERATIONS.
    ------------------------------------------------

 NO OUTPUT CONTROL FOR STRESS PERIOD   19   TIME STEP   23
 
 SOLVING FOR HEAD 
                                                   Max.-Head-Change                         Max.-Flux-Residual
  Residual-Control   Outer-Iter.   Inner-Iter.     Column Row Layer    Maximum-Head-Change  Column Row Layer    Maximum-Flux-Residual          L2-NORM 
          0                 1           2             4    7     1       0.1844416186E+00       4    7    1         0.9757551443E+01      0.1893626105E+02
          0                 2           2             4    7     1      -0.8783397077E-01       4    7    1        -0.4725791401E+01      0.1092519363E+02
          0                 3           2             4    7     1       0.5414356937E-01       4    7    1         0.2987147530E+01      0.7286678166E+01
          0                 4           2             4    7     1      -0.2154441752E-02       4    7    1        -0.1221756529E+00      0.3086045710E+00
          0                 5           1             7   13     1       0.8940773114E-04       7   13    1         0.5122455828E-02      0.6552587242E-02

    ------------------------------------------------
       NWT REQUIRED            5 OUTER ITERATIONS 
       AND A TOTAL OF          9 INNER ITERATIONS.
    ------------------------------------------------

 NO OUTPUT CONTROL FOR STRESS PERIOD   19   TIME STEP   24
 
 SOLVING FOR HEAD 
                                                   Max.-Head-Change                         Max.-Flux-Residual
  Residual-Control   Outer-Iter.   Inner-Iter.     Column Row Layer    Maximum-Head-Change  Column Row Layer    Maximum-Flux-Residual          L2-NORM 
          0                 1           2             4    7     1       0.4995741944E+00       4    7    1         0.2635687389E+02      0.4827890486E+02
          0                 2           2             4    7     1       0.2329236033E+00       4    7    1         0.1228582979E+02      0.2193091274E+02
          0                 3           2             4    7     1       0.1082817843E+00       4    7    1         0.5714968506E+01      0.1009165218E+02
          0                 4           2             4    7     1       0.5031229577E-01       4    7    1         0.2656474530E+01      0.4644578989E+01
          0                 5           2             4    7     1       0.2336605972E-01       4    7    1         0.1234206715E+01      0.2137832771E+01
          0                 6           2             4    7     1       0.1084685222E-01       4    7    1         0.5731433137E+00      0.9841632448E+00
          0                 7           2             4    7     1       0.5033173558E-02       4    7    1         0.2660406127E+00      0.4531331210E+00
          0                 8           2             4    7     1       0.2334597510E-02       4    7    1         0.1234396553E+00      0.2086616012E+00
          0                 9           2             4    7     1       0.1082493000E-02       4    7    1         0.5725262784E-01      0.9609743536E-01
          0                10           2             4    7     1       0.5017545590E-03       4    7    1         0.2654489494E-01      0.4426173527E-01
                                                   Max.-Head-Change                         Max.-Flux-Residual
  Residual-Control   Outer-Iter.   Inner-Iter.     Column Row Layer    Maximum-Head-Change  Column Row Layer    Maximum-Flux-Residual          L2-NORM 
          0                11           2             4    7     1       0.2324984828E-03       4    7    1         0.1230329705E-01      0.2038861908E-01
          0                12           1             4    7     1       0.1077011153E-03       4    7    1         0.5700674044E-02      0.9392597860E-02
          0                13           1             4    7     1       0.4987692091E-04       4    7    1         0.2640606607E-02      0.4327313795E-02

    ------------------------------------------------
       NWT REQUIRED           13 OUTER ITERATIONS 
       AND A TOTAL OF         24 INNER ITERATIONS.
    ------------------------------------------------

 NO OUTPUT CONTROL FOR STRESS PERIOD   19   TIME STEP   25
 
 SOLVING FOR HEAD 
     PET DIFF ERROR     6    4    0.2245362952E-08    0.1500000053E-06
     PET DIFF ERROR     6    5    0.2245362952E-08    0.1500000053E-06
     PET DIFF ERROR     7    4    0.2245356377E-08    0.1500000053E-06
     PET DIFF ERROR     7    5    0.2245362952E-08    0.1500000053E-06
     PET DIFF ERROR     8    4    0.2245362952E-08    0.1500000053E-06
     PET DIFF ERROR     8    5    0.2245356377E-08    0.1500000053E-06
                                                   Max.-Head-Change                         Max.-Flux-Residual
  Residual-Control   Outer-Iter.   Inner-Iter.     Column Row Layer    Maximum-Head-Change  Column Row Layer    Maximum-Flux-Residual          L2-NORM 
          0                 1           2             4    7     1       0.5212204262E+00       4    7    1         0.2737525312E+02      0.5725283187E+02
     PET DIFF ERROR     6    4    0.2245362952E-08    0.1500000053E-06
     PET DIFF ERROR     6    5    0.2245362952E-08    0.1500000053E-06
     PET DIFF ERROR     7    4    0.2245356377E-08    0.1500000053E-06
     PET DIFF ERROR     7    5    0.2245362952E-08    0.1500000053E-06
     PET DIFF ERROR     8    4    0.2245362952E-08    0.1500000053E-06
     PET DIFF ERROR     8    5    0.2245356377E-08    0.1500000053E-06
          0                 2           2             4    7     1       0.2400920744E+00       4    7    1         0.1260953980E+02      0.2567172116E+02
     PET DIFF ERROR     6    4    0.2245362952E-08    0.1500000053E-06
     PET DIFF ERROR     6    5    0.2245362952E-08    0.1500000053E-06
     PET DIFF ERROR     7    4    0.2245356377E-08    0.1500000053E-06
     PET DIFF ERROR     7    5    0.2245362952E-08    0.1500000053E-06
     PET DIFF ERROR     8    4    0.2245362952E-08    0.1500000053E-06
     PET DIFF ERROR     8    5    0.2245356377E-08    0.1500000053E-06
          0                 3           2             4    7     1       0.1105083424E+00       4    7    1         0.5808427425E+01      0.1159464285E+02
     PET DIFF ERROR     6    4    0.2245362952E-08    0.1500000053E-06
     PET DIFF ERROR     6    5    0.2245362952E-08    0.1500000053E-06
     PET DIFF ERROR     7    4    0.2245356377E-08    0.1500000053E-06
     PET DIFF ERROR     7    5    0.2245362952E-08    0.1500000053E-06
     PET DIFF ERROR     8    4    0.2245362952E-08    0.1500000053E-06
     PET DIFF ERROR     8    5    0.2245356377E-08    0.1500000053E-06
          0                 4           2             4    7     1       0.5082535958E-01       4    7    1         0.2673053327E+01      0.5238676605E+01
     PET DIFF ERROR     6    4    0.2245362952E-08    0.1500000053E-06
     PET DIFF ERROR     6    5    0.2245362952E-08    0.1500000053E-06
     PET DIFF ERROR     7    4    0.2245356377E-08    0.1500000053E-06
     PET DIFF ERROR     7    5    0.2245362952E-08    0.1500000053E-06
     PET DIFF ERROR     8    4    0.2245362952E-08    0.1500000053E-06
     PET DIFF ERROR     8    5    0.2245356377E-08    0.1500000053E-06
          0                 5           2             4    7     1       0.2335890790E-01       4    7    1         0.1229238869E+01      0.2368524162E+01
     PET DIFF ERROR     6    4    0.2245362952E-08    0.1500000053E-06
     PET DIFF ERROR     6    5    0.2245362952E-08    0.1500000053E-06
     PET DIFF ERROR     7    4    0.2245356377E-08    0.1500000053E-06
     PET DIFF ERROR     7    5    0.2245362952E-08    0.1500000053E-06
     PET DIFF ERROR     8    4    0.2245362952E-08    0.1500000053E-06
     PET DIFF ERROR     8    5    0.2245356377E-08    0.1500000053E-06
          0                 6           2             4    7     1       0.1072827623E-01       4    7    1         0.5648760765E+00      0.1071434947E+01
     PET DIFF ERROR     6    4    0.2245362952E-08    0.1500000053E-06
     PET DIFF ERROR     6    5    0.2245362952E-08    0.1500000053E-06
     PET DIFF ERROR     7    4    0.2245356377E-08    0.1500000053E-06
     PET DIFF ERROR     7    5    0.2245362952E-08    0.1500000053E-06
     PET DIFF ERROR     8    4    0.2245362952E-08    0.1500000053E-06
     PET DIFF ERROR     8    5    0.2245356377E-08    0.1500000053E-06
          0                 7           2             4    7     1       0.4924138385E-02       4    7    1         0.2594052223E+00      0.4849149875E+00
     PET DIFF ERROR     6    4    0.2245362952E-08    0.1500000053E-06
     PET DIFF ERROR     6    5    0.2245362952E-08    0.1500000053E-06
     PET DIFF ERROR     7    4    0.2245356377E-08    0.1500000053E-06
     PET DIFF ERROR     7    5    0.2245362952E-08    0.1500000053E-06
     PET DIFF ERROR     8    4    0.2245362952E-08    0.1500000053E-06
     PET DIFF ERROR     8    5    0.2245356377E-08    0.1500000053E-06
          0                 8           2             4    7     1       0.2258759351E-02       4    7    1         0.1190501878E+00      0.2195607000E+00
     PET DIFF ERROR     6    4    0.2245362952E-08    0.1500000053E-06
     PET DIFF ERROR     6    5    0.2245362952E-08    0.1500000053E-06
     PET DIFF ERROR     7    4    0.2245356377E-08    0.1500000053E-06
     PET DIFF ERROR     7    5    0.2245362952E-08    0.1500000053E-06
     PET DIFF ERROR     8    4    0.2245362952E-08    0.1500000053E-06
     PET DIFF ERROR     8    5    0.2245356377E-08    0.1500000053E-06
          0                 9           2             4    7     1       0.1035534660E-02       4    7    1         0.5460390795E-01      0.9945195929E-01
     PET DIFF ERROR     6    4    0.2245362952E-08    0.1500000053E-06
     PET DIFF ERROR     6    5    0.2245362952E-08    0.1500000053E-06
     PET DIFF ERROR     7    4    0.2245356377E-08    0.1500000053E-06
     PET DIFF ERROR     7    5    0.2245362952E-08    0.1500000053E-06
     PET DIFF ERROR     8    4    0.2245362952E-08    0.1500000053E-06
     PET DIFF ERROR     8    5    0.2245356377E-08    0.1500000053E-06
          0                10           2             4    7     1       0.4744920191E-03       4    7    1         0.2503081780E-01      0.4506343678E-01
     PET DIFF ERROR     6    4    0.2245362952E-08    0.1500000053E-06
     PET DIFF ERROR     6    5    0.2245362952E-08    0.1500000053E-06
     PET DIFF ERROR     7    4    0.2245356377E-08    0.1500000053E-06
     PET DIFF ERROR     7    5    0.2245362952E-08    0.1500000053E-06
     PET DIFF ERROR     8    4    0.2245362952E-08    0.1500000053E-06
     PET DIFF ERROR     8    5    0.2245356377E-08    0.1500000053E-06
                                                   Max.-Head-Change                         Max.-Flux-Residual
  Residual-Control   Outer-Iter.   Inner-Iter.     Column Row Layer    Maximum-Head-Change  Column Row Layer    Maximum-Flux-Residual          L2-NORM 
          0                11           2             4    7     1       0.2173084180E-03       4    7    1         0.1146828593E-01      0.2042546134E-01
     PET DIFF ERROR     6    4    0.2245362952E-08    0.1500000053E-06
     PET DIFF ERROR     6    5    0.2245362952E-08    0.1500000053E-06
     PET DIFF ERROR     7    4    0.2245356377E-08    0.1500000053E-06
     PET DIFF ERROR     7    5    0.2245362952E-08    0.1500000053E-06
     PET DIFF ERROR     8    4    0.2245362952E-08    0.1500000053E-06
     PET DIFF ERROR     8    5    0.2245356377E-08    0.1500000053E-06
          0                12           1             4    7     1       0.9947650231E-04       4    7    1         0.5251795048E-02      0.9260662419E-02

    ------------------------------------------------
       NWT REQUIRED           12 OUTER ITERATIONS 
       AND A TOTAL OF         23 INNER ITERATIONS.
    ------------------------------------------------

 NO OUTPUT CONTROL FOR STRESS PERIOD   19   TIME STEP   26
     PET DIFF ERROR     6    4    0.2245362952E-08    0.1500000053E-06
     PET DIFF ERROR     6    5    0.2245362952E-08    0.1500000053E-06
     PET DIFF ERROR     7    4    0.2245356377E-08    0.1500000053E-06
     PET DIFF ERROR     7    5    0.2245362952E-08    0.1500000053E-06
     PET DIFF ERROR     8    4    0.2245362952E-08    0.1500000053E-06
     PET DIFF ERROR     8    5    0.2245356377E-08    0.1500000053E-06
 
 SOLVING FOR HEAD 
                                                   Max.-Head-Change                         Max.-Flux-Residual
  Residual-Control   Outer-Iter.   Inner-Iter.     Column Row Layer    Maximum-Head-Change  Column Row Layer    Maximum-Flux-Residual          L2-NORM 
          0                 1           2             5    8     1       0.6752212002E+00       5    8    1         0.3669439972E+02      0.6075204596E+02
          0                 2           2             4    8     1      -0.1679215968E+01       5    6    1        -0.9152253231E+02      0.2187180247E+03
          0                 3           2             5    8     1      -0.7079762579E+00       5    8    1        -0.3957500641E+02      0.6216888261E+02
          0                 4           2             5    8     1      -0.9522538275E-01       5    8    1        -0.5443782148E+01      0.6395930586E+01
          0                 5           2             5    8     1       0.6485639448E-02       5    8    1         0.3799322490E+00      0.4046643000E+00
          0                 6           1             5    8     1      -0.2581951961E-03       5    8    1        -0.1549613210E-01      0.1561792629E-01
          0                 7           1             5    8     1       0.3188381249E-05       5    8    1         0.1957354154E-03      0.1983811938E-03

    ------------------------------------------------
       NWT REQUIRED            7 OUTER ITERATIONS 
       AND A TOTAL OF         12 INNER ITERATIONS.
    ------------------------------------------------

 NO OUTPUT CONTROL FOR STRESS PERIOD   19   TIME STEP   27
 
 SOLVING FOR HEAD 
                                                   Max.-Head-Change                         Max.-Flux-Residual
  Residual-Control   Outer-Iter.   Inner-Iter.     Column Row Layer    Maximum-Head-Change  Column Row Layer    Maximum-Flux-Residual          L2-NORM 
          0                 1           2             5    8     1       0.1899552574E+00       5    8    1         0.1036821302E+02      0.2052863133E+02
          0                 2           2             4    7     1      -0.8539597165E-01       4    7    1        -0.4592605913E+01      0.1007746833E+02
          0                 3           2             5    8     1       0.5569335988E-01       5    8    1         0.2984125303E+01      0.7297981270E+01
          0                 4           2             5    8     1       0.2457908918E-01       5    8    1         0.1359868452E+01      0.1388720416E+01
          0                 5           2             5    8     1       0.1084737948E-01       5    8    1         0.5984860413E+00      0.5985337706E+00
          0                 6           1             5    8     1       0.4787227419E-02       5    8    1         0.2641376897E+00      0.2641422520E+00
          0                 7           1             5    8     1       0.2112726606E-02       5    8    1         0.1165711105E+00      0.1165730353E+00
          0                 8           1             5    8     1       0.9324006157E-03       5    8    1         0.5144584236E-01      0.5144669133E-01
          0                 9           1             5    8     1       0.4114923878E-03       5    8    1         0.2270437825E-01      0.2270475279E-01
          0                10           1             5    8     1       0.1816021810E-03       5    8    1         0.1002002723E-01      0.1002019252E-01
          0                11           1             5    8     1       0.8014571653E-04       5    8    1         0.4422096120E-02      0.4422169120E-02

    ------------------------------------------------
       NWT REQUIRED           11 OUTER ITERATIONS 
       AND A TOTAL OF         16 INNER ITERATIONS.
    ------------------------------------------------

 NO OUTPUT CONTROL FOR STRESS PERIOD   19   TIME STEP   28
 
 SOLVING FOR HEAD 
                                                   Max.-Head-Change                         Max.-Flux-Residual
  Residual-Control   Outer-Iter.   Inner-Iter.     Column Row Layer    Maximum-Head-Change  Column Row Layer    Maximum-Flux-Residual          L2-NORM 
          0                 1           2             5    8     1       0.4642332795E+00       5    8    1         0.2496972272E+02      0.5784225452E+02
          0                 2           2             4    7     1       0.2157498209E+00       5    8    1         0.1137072273E+02      0.2657511057E+02
          0                 3           2             4    7     1       0.1015858493E+00       4    7    1         0.5316399139E+01      0.1233885393E+02
          0                 4           2             4    7     1       0.4780826182E-01       4    7    1         0.2502955074E+01      0.5729516937E+01
          0                 5           2             4    7     1       0.2248885819E-01       4    7    1         0.1177843436E+01      0.2661209845E+01
          0                 6           2             4    7     1       0.1057387709E-01       4    7    1         0.5540083023E+00      0.1236261884E+01
          0                 7           2             4    7     1       0.4969481212E-02       4    7    1         0.2604646851E+00      0.5743950544E+00
          0                 8           2             4    7     1       0.2334560764E-02       4    7    1         0.1224031464E+00      0.2669148608E+00
          0                 9           2             4    7     1       0.1096285998E-02       4    7    1         0.5749828722E-01      0.1240484057E+00
          0                10           2             4    7     1       0.5146051704E-03       4    7    1         0.2699871084E-01      0.5765817537E-01
                                                   Max.-Head-Change                         Max.-Flux-Residual
  Residual-Control   Outer-Iter.   Inner-Iter.     Column Row Layer    Maximum-Head-Change  Column Row Layer    Maximum-Flux-Residual          L2-NORM 
          0                11           2             4    7     1       0.2414698203E-03       4    7    1         0.1267254828E-01      0.2680262189E-01
          0                12           1             4    7     1       0.1132652392E-03       4    7    1         0.5945994439E-02      0.1246052013E-01
          0                13           1             4    7     1       0.5311068813E-04       4    7    1         0.2788889263E-02      0.5793403557E-02

    ------------------------------------------------
       NWT REQUIRED           13 OUTER ITERATIONS 
       AND A TOTAL OF         24 INNER ITERATIONS.
    ------------------------------------------------

 NO OUTPUT CONTROL FOR STRESS PERIOD   19   TIME STEP   29
 
 SOLVING FOR HEAD 
     PET DIFF ERROR     6    4    0.2245356377E-08    0.1500000053E-06
     PET DIFF ERROR     6    5    0.2245356377E-08    0.1500000053E-06
     PET DIFF ERROR     7    4    0.2245356377E-08    0.1500000053E-06
     PET DIFF ERROR     7    5    0.2245362952E-08    0.1500000053E-06
     PET DIFF ERROR     8    4    0.2245362952E-08    0.1500000053E-06
     PET DIFF ERROR     8    5    0.2245362952E-08    0.1500000053E-06
                                                   Max.-Head-Change                         Max.-Flux-Residual
  Residual-Control   Outer-Iter.   Inner-Iter.     Column Row Layer    Maximum-Head-Change  Column Row Layer    Maximum-Flux-Residual          L2-NORM 
          0                 1           2             4    7     1       0.5307274796E+00       4    7    1         0.2779574082E+02      0.6300845765E+02
     PET DIFF ERROR     6    4    0.2245356377E-08    0.1500000053E-06
     PET DIFF ERROR     6    5    0.2245356377E-08    0.1500000053E-06
     PET DIFF ERROR     7    4    0.2245356377E-08    0.1500000053E-06
     PET DIFF ERROR     7    5    0.2245362952E-08    0.1500000053E-06
     PET DIFF ERROR     8    4    0.2245362952E-08    0.1500000053E-06
     PET DIFF ERROR     8    5    0.2245362952E-08    0.1500000053E-06
          0                 2           2             4    7     1       0.2496682976E+00       4    7    1         0.1307430374E+02      0.2911011965E+02
     PET DIFF ERROR     6    4    0.2245356377E-08    0.1500000053E-06
     PET DIFF ERROR     6    5    0.2245356377E-08    0.1500000053E-06
     PET DIFF ERROR     7    4    0.2245356377E-08    0.1500000053E-06
     PET DIFF ERROR     7    5    0.2245362952E-08    0.1500000053E-06
     PET DIFF ERROR     8    4    0.2245362952E-08    0.1500000053E-06
     PET DIFF ERROR     8    5    0.2245362952E-08    0.1500000053E-06
          0                 3           2             4    7     1       0.1173906982E+00       4    7    1         0.6150638249E+01      0.1352824634E+02
     PET DIFF ERROR     6    4    0.2245356377E-08    0.1500000053E-06
     PET DIFF ERROR     6    5    0.2245356377E-08    0.1500000053E-06
     PET DIFF ERROR     7    4    0.2245356377E-08    0.1500000053E-06
     PET DIFF ERROR     7    5    0.2245362952E-08    0.1500000053E-06
     PET DIFF ERROR     8    4    0.2245362952E-08    0.1500000053E-06
     PET DIFF ERROR     8    5    0.2245362952E-08    0.1500000053E-06
          0                 4           2             4    7     1       0.5516889252E-01       4    7    1         0.2891652936E+01      0.6286982502E+01
     PET DIFF ERROR     6    4    0.2245356377E-08    0.1500000053E-06
     PET DIFF ERROR     6    5    0.2245356377E-08    0.1500000053E-06
     PET DIFF ERROR     7    4    0.2245356377E-08    0.1500000053E-06
     PET DIFF ERROR     7    5    0.2245362952E-08    0.1500000053E-06
     PET DIFF ERROR     8    4    0.2245362952E-08    0.1500000053E-06
     PET DIFF ERROR     8    5    0.2245362952E-08    0.1500000053E-06
          0                 5           2             4    7     1       0.2591525272E-01       4    7    1         0.1358851383E+01      0.2922233113E+01
     PET DIFF ERROR     6    4    0.2245356377E-08    0.1500000053E-06
     PET DIFF ERROR     6    5    0.2245356377E-08    0.1500000053E-06
     PET DIFF ERROR     7    4    0.2245356377E-08    0.1500000053E-06
     PET DIFF ERROR     7    5    0.2245362952E-08    0.1500000053E-06
     PET DIFF ERROR     8    4    0.2245362952E-08    0.1500000053E-06
     PET DIFF ERROR     8    5    0.2245362952E-08    0.1500000053E-06
          0                 6           2             4    7     1       0.1216821846E-01       4    7    1         0.6382614387E+00      0.1358408704E+01
     PET DIFF ERROR     6    4    0.2245356377E-08    0.1500000053E-06
     PET DIFF ERROR     6    5    0.2245356377E-08    0.1500000053E-06
     PET DIFF ERROR     7    4    0.2245356377E-08    0.1500000053E-06
     PET DIFF ERROR     7    5    0.2245362952E-08    0.1500000053E-06
     PET DIFF ERROR     8    4    0.2245362952E-08    0.1500000053E-06
     PET DIFF ERROR     8    5    0.2245362952E-08    0.1500000053E-06
          0                 7           2             4    7     1       0.5711078651E-02       4    7    1         0.2996659048E+00      0.6315219667E+00
     PET DIFF ERROR     6    4    0.2245356377E-08    0.1500000053E-06
     PET DIFF ERROR     6    5    0.2245356377E-08    0.1500000053E-06
     PET DIFF ERROR     7    4    0.2245356377E-08    0.1500000053E-06
     PET DIFF ERROR     7    5    0.2245362952E-08    0.1500000053E-06
     PET DIFF ERROR     8    4    0.2245362952E-08    0.1500000053E-06
     PET DIFF ERROR     8    5    0.2245362952E-08    0.1500000053E-06
          0                 8           2             4    7     1       0.2679400407E-02       4    7    1         0.1406362062E+00      0.2936193773E+00
     PET DIFF ERROR     6    4    0.2245356377E-08    0.1500000053E-06
     PET DIFF ERROR     6    5    0.2245356377E-08    0.1500000053E-06
     PET DIFF ERROR     7    4    0.2245356377E-08    0.1500000053E-06
     PET DIFF ERROR     7    5    0.2245362952E-08    0.1500000053E-06
     PET DIFF ERROR     8    4    0.2245362952E-08    0.1500000053E-06
     PET DIFF ERROR     8    5    0.2245362952E-08    0.1500000053E-06
          0                 9           2             4    7     1       0.1256590356E-02       4    7    1         0.6597611889E-01      0.1365261834E+00
     PET DIFF ERROR     6    4    0.2245356377E-08    0.1500000053E-06
     PET DIFF ERROR     6    5    0.2245356377E-08    0.1500000053E-06
     PET DIFF ERROR     7    4    0.2245356377E-08    0.1500000053E-06
     PET DIFF ERROR     7    5    0.2245362952E-08    0.1500000053E-06
     PET DIFF ERROR     8    4    0.2245362952E-08    0.1500000053E-06
     PET DIFF ERROR     8    5    0.2245362952E-08    0.1500000053E-06
          0                10           2             4    7     1       0.5891071835E-03       4    7    1         0.3093958089E-01      0.6348616754E-01
     PET DIFF ERROR     6    4    0.2245356377E-08    0.1500000053E-06
     PET DIFF ERROR     6    5    0.2245356377E-08    0.1500000053E-06
     PET DIFF ERROR     7    4    0.2245356377E-08    0.1500000053E-06
     PET DIFF ERROR     7    5    0.2245362952E-08    0.1500000053E-06
     PET DIFF ERROR     8    4    0.2245362952E-08    0.1500000053E-06
     PET DIFF ERROR     8    5    0.2245362952E-08    0.1500000053E-06
                                                   Max.-Head-Change                         Max.-Flux-Residual
  Residual-Control   Outer-Iter.   Inner-Iter.     Column Row Layer    Maximum-Head-Change  Column Row Layer    Maximum-Flux-Residual          L2-NORM 
          0                11           2             4    7     1       0.2760875840E-03       4    7    1         0.1450400478E-01      0.2952374313E-01
     PET DIFF ERROR     6    4    0.2245356377E-08    0.1500000053E-06
     PET DIFF ERROR     6    5    0.2245356377E-08    0.1500000053E-06
     PET DIFF ERROR     7    4    0.2245356377E-08    0.1500000053E-06
     PET DIFF ERROR     7    5    0.2245362952E-08    0.1500000053E-06
     PET DIFF ERROR     8    4    0.2245362952E-08    0.1500000053E-06
     PET DIFF ERROR     8    5    0.2245362952E-08    0.1500000053E-06
          0                12           1             4    7     1       0.1293476349E-03       4    7    1         0.6796959674E-02      0.1373062592E-01
     PET DIFF ERROR     6    4    0.2245356377E-08    0.1500000053E-06
     PET DIFF ERROR     6    5    0.2245356377E-08    0.1500000053E-06
     PET DIFF ERROR     7    4    0.2245356377E-08    0.1500000053E-06
     PET DIFF ERROR     7    5    0.2245362952E-08    0.1500000053E-06
     PET DIFF ERROR     8    4    0.2245362952E-08    0.1500000053E-06
     PET DIFF ERROR     8    5    0.2245362952E-08    0.1500000053E-06
          0                13           1             4    7     1       0.6058092436E-04       4    7    1         0.3184210265E-02      0.6386068142E-02

    ------------------------------------------------
       NWT REQUIRED           13 OUTER ITERATIONS 
       AND A TOTAL OF         24 INNER ITERATIONS.
    ------------------------------------------------

 NO OUTPUT CONTROL FOR STRESS PERIOD   19   TIME STEP   30



 STREAM LISTING     PERIOD     19   STEP       30

 LAYER ROW COL. STREAM  RCH.  FLOW INTO     FLOW TO   FLOW OUT OF   OVRLND.     DIRECT     STREAM       STREAM     STREAM     STREAM   STREAMBED  STREAMBED
                SEG.NO.  NO.  STRM. RCH.    AQUIFER    STRM. RCH.    RUNOFF     PRECIP       ET          HEAD       DEPTH      WIDTH   CONDCTNC.   GRADIENT

   1    1    1     1     1    4.0501E+01  3.0566E-01   4.0195E+01  0.000E+00  0.000E+00  0.000E+00  1.09438E+03  1.335E+00  1.567E+01  7.051E-02  1.445E+00
   1    2    2     1     2    4.0195E+01  4.7341E-01   3.9722E+01  0.000E+00  0.000E+00  0.000E+00  1.08939E+03  1.332E+00  1.561E+01  1.093E-01  1.444E+00
   1    3    3     1     3    3.9722E+01  4.0378E-01   3.9318E+01  0.000E+00  0.000E+00  0.000E+00  1.08375E+03  1.329E+00  1.555E+01  9.328E-02  1.443E+00
   1    3    4     1     4    3.9318E+01  3.7185E-01   3.8946E+01  0.000E+00  0.000E+00  0.000E+00  1.07873E+03  1.326E+00  1.549E+01  8.596E-02  1.442E+00
   1    4    5     2     1    3.6946E+01  3.5272E-01   3.6593E+01  0.000E+00  0.000E+00  0.000E+00  1.07346E+03  1.522E+00  1.200E+01  7.800E-02  1.507E+00
   1    5    6     2     2    3.6593E+01  2.7086E-01   3.6322E+01  0.000E+00  0.000E+00  0.000E+00  1.06802E+03  1.514E+00  1.200E+01  6.000E-02  1.505E+00
   1    6    6     2     3    3.6322E+01  2.7045E-01   3.6052E+01  0.000E+00  0.000E+00  0.000E+00  1.06330E+03  1.508E+00  1.200E+01  6.000E-02  1.503E+00
   1    7    6     2     4    3.6052E+01  2.7005E-01   3.5782E+01  0.000E+00  0.000E+00  0.000E+00  1.05858E+03  1.501E+00  1.200E+01  6.000E-02  1.500E+00
   1    8    6     2     5    3.5782E+01  2.6964E-01   3.5512E+01  0.000E+00  0.000E+00  0.000E+00  1.05385E+03  1.494E+00  1.200E+01  6.000E-02  1.498E+00
   1    3    5     3     1    2.0000E+00  2.8252E-01   1.7175E+00  0.000E+00  0.000E+00  0.000E+00  1.07555E+03  1.909E+00  9.636E+00  7.227E-02  1.955E+00
   1    3    6     3     2    1.7175E+00  2.4905E-01   1.4684E+00  0.000E+00  0.000E+00  0.000E+00  1.07264E+03  1.727E+00  8.909E+00  6.682E-02  1.864E+00
   1    3    7     3     3    1.4684E+00  1.9718E-01   1.2712E+00  0.000E+00  0.000E+00  0.000E+00  1.06987E+03  1.555E+00  8.218E+00  5.547E-02  1.777E+00
   1    4    8     3     4    1.2712E+00  2.2567E-01   1.0456E+00  0.000E+00  0.000E+00  0.000E+00  1.06682E+03  1.364E+00  7.455E+00  6.709E-02  1.682E+00
   1    5    8     3     5    1.0456E+00  1.5790E-01   8.8768E-01  0.000E+00  0.000E+00  0.000E+00  1.06362E+03  1.164E+00  6.655E+00  4.991E-02  1.582E+00
   1    6    8     3     6    8.8768E-01  5.5980E-02   8.3170E-01  0.000E+00  0.000E+00  0.000E+00  1.06158E+03  1.036E+00  6.145E+00  1.844E-02  1.518E+00
   1    5   10     4     1    1.0000E+01  9.0919E-02   9.9091E+00  0.000E+00  0.000E+00  0.000E+00  1.07836E+03  6.368E-01  1.000E+01  2.500E-02  1.212E+00
   1    5    9     4     2    9.9091E+00  1.8158E-01   9.7275E+00  0.000E+00  0.000E+00  0.000E+00  1.07154E+03  6.315E-01  1.000E+01  5.000E-02  1.211E+00
   1    6    8     4     3    9.7275E+00  1.2689E-01   9.6006E+00  0.000E+00  0.000E+00  0.000E+00  1.06381E+03  6.256E-01  1.000E+01  3.500E-02  1.209E+00
   1    6    8     5     1    1.0432E+01  2.2686E-01   1.0205E+01  0.000E+00  0.000E+00  0.000E+00  1.05868E+03  6.790E-01  1.542E+01  6.166E-02  1.226E+00
   1    7    7     5     2    1.0205E+01  2.7894E-01   9.9265E+00  0.000E+00  0.000E+00  0.000E+00  1.05417E+03  6.732E-01  1.519E+01  7.594E-02  1.224E+00
   1    8    7     5     3    9.9265E+00  1.9221E-01   9.7343E+00  0.000E+00  0.000E+00  0.000E+00  1.04992E+03  6.676E-01  1.497E+01  5.241E-02  1.223E+00
   1    8    6     5     4    9.7343E+00  1.3577E-01   9.5985E+00  0.000E+00  0.000E+00  0.000E+00  1.04691E+03  6.637E-01  1.482E+01  3.706E-02  1.221E+00
   1    9    6     6     1    4.5111E+01  2.8420E-01   4.4827E+01  0.000E+00  0.000E+00  0.000E+00  1.04446E+03  1.737E+00  1.200E+01  6.000E-02  1.579E+00
   1   10    7     6     2    4.4827E+01  2.8380E-01   4.4543E+01  0.000E+00  0.000E+00  0.000E+00  1.03991E+03  1.730E+00  1.200E+01  6.000E-02  1.577E+00
   1   11    7     6     3    4.4543E+01  2.8341E-01   4.4259E+01  0.000E+00  0.000E+00  0.000E+00  1.03536E+03  1.723E+00  1.200E+01  6.000E-02  1.574E+00
   1   12    7     6     4    4.4259E+01  2.8301E-01   4.3976E+01  0.000E+00  0.000E+00  0.000E+00  1.03081E+03  1.717E+00  1.200E+01  6.000E-02  1.572E+00
   1   13    7     6     5    4.3976E+01  1.7417E-02   4.3959E+01  0.000E+00  0.000E+00  0.000E+00  1.02762E+03  1.713E+00  1.200E+01  2.400E-02  2.419E-01
   1   14    9     7     1    1.5000E+02  1.3451E+00   1.4865E+02  0.000E+00  0.000E+00  0.000E+00  1.03987E+03  2.288E+00  5.529E+01  5.593E-01  8.016E-01
   1   13    8     7     2    1.4865E+02  1.8844E+00   1.4677E+02  0.000E+00  0.000E+00  0.000E+00  1.03478E+03  2.279E+00  5.526E+01  6.148E-01  1.022E+00
   1   13    7     7     3    1.4677E+02  1.5594E+00   1.4521E+02  0.000E+00  0.000E+00  0.000E+00  1.02969E+03  2.270E+00  5.521E+01  5.584E-01  9.308E-01
   1   13    6     8     1    1.8917E+02  1.0851E+00   1.8808E+02  0.000E+00  0.000E+00  0.000E+00  1.02494E+03  3.070E+00  4.451E+01  4.536E-01  7.974E-01
   1   13    5     8     2    1.8808E+02  2.9419E-01   1.8779E+02  0.000E+00  0.000E+00  0.000E+00  1.01869E+03  3.065E+00  4.445E+01  4.529E-01  2.165E-01
   1   13    4     8     3    1.8779E+02 -1.9008E+00   1.8969E+02  0.000E+00  0.000E+00  0.000E+00  1.01245E+03  3.070E+00  4.452E+01  4.537E+00 -1.397E-01
   1   13    3     8     4    1.8969E+02 -3.2725E+00   1.9296E+02  0.000E+00  0.000E+00  0.000E+00  1.00621E+03  3.086E+00  4.475E+01  4.560E+00 -2.392E-01
   1   13    2     8     5    1.9296E+02 -2.2632E+00   1.9523E+02  0.000E+00  0.000E+00  0.000E+00  9.99978E+02  3.103E+00  4.499E+01  4.584E+00 -1.646E-01
   1   13    1     8     6    1.9523E+02 -1.8417E+00   1.9707E+02  0.000E+00  0.000E+00  0.000E+00  9.94990E+02  3.115E+00  4.517E+01  2.762E+00 -2.223E-01
   1    8    6     9     1    0.0000E+00  0.0000E+00   0.0000E+00  0.000E+00  0.000E+00  0.000E+00  1.07875E+03  0.000E+00  4.000E+00  0.000E+00  1.000E+00
   1    8    5     9     2    0.0000E+00  0.0000E+00   0.0000E+00  0.000E+00  0.000E+00  0.000E+00  1.07825E+03  0.000E+00  4.000E+00  0.000E+00  1.000E+00



     PET DIFF ERROR     6    4    0.2245356377E-08    0.1500000053E-06
     PET DIFF ERROR     6    5    0.2245356377E-08    0.1500000053E-06
     PET DIFF ERROR     7    4    0.2245356377E-08    0.1500000053E-06
     PET DIFF ERROR     7    5    0.2245362952E-08    0.1500000053E-06
     PET DIFF ERROR     8    4    0.2245362952E-08    0.1500000053E-06
     PET DIFF ERROR     8    5    0.2245362952E-08    0.1500000053E-06


UNSATURATED ZONE PACKAGE VOLUMETRIC BUDGET FOR  TIME STEP    30 STRESS PERIOD   19
  ------------------------------------------------------------------------------



     CUMULATIVE VOLUMES      L**3       RATES FOR THIS TIME STEP      L**3/T
     ------------------                 ------------------------

           IN:                                      IN:
           ---                                      ---
        INFILTRATION =  3426031747.0076          INFILTRATION =           0.8475

          OUT:                                     OUT:
          ----                                     ----
              UZF ET =   534179136.2978                UZF ET =          23.6543
        UZF RECHARGE =  2074444553.1270          UZF RECHARGE =         280.5071

            IN - OUT =   817408057.5829              IN - OUT =        -303.3139

          STORAGE:                                 STORAGE:
          --------                                 --------
      STORAGE CHANGE =   818206881.5946        STORAGE CHANGE =        -303.3255

 PERCENT DISCREPANCY IS DIFFERENCE BETWEEN IN-OUT MINUS CHANGE IN STORAGE
 DIVIDED BY THE AVERAGE OF IN AND OUT TIMES 100

 PERCENT DISCREPANCY =          -0.01     PERCENT DISCREPANCY =           0.00






1
  VOLUMETRIC BUDGET FOR AGRICULTURAL FIELDS AT  END OF TIME STEP   30, STRESS PERIOD  19
  ------------------------------------------------------------------------------

     CUMULATIVE VOLUMES      L**3       RATES FOR THIS TIME STEP      L**3/T
     ------------------                 ------------------------

           IN:                                      IN:
           ---                                      ---
               AG WELLS  =  2951142656.0000                 AG WELLS  =           0.0000
      DIVERSION SEGMENTS =   434709920.0000        DIVERSION SEGMENTS =           0.0000
       IRRIGATION PONDS  =           0.0000         IRRIGATION PONDS  =           0.0000
           GW IRRIGATION =           0.0000             GW IRRIGATION =           0.0000
           SW IRRIGATION =           0.0000             SW IRRIGATION =           0.0000
        SYSTEM LOSSES GW =           0.0000          SYSTEM LOSSES GW =           0.0000
        SYSTEM LOSSES SW =           0.0000          SYSTEM LOSSES SW =           0.0000

                TOTAL IN =  3385852672.0000                  TOTAL IN =           0.0000

          OUT:                                     OUT:
          ----                                     ----
               AG WELLS  =           0.0000                 AG WELLS  =           0.0000
      DIVERSION SEGMENTS =           0.0000        DIVERSION SEGMENTS =           0.0000
       IRRIGATION PONDS  =           0.0000         IRRIGATION PONDS  =           0.0000
           GW IRRIGATION =  2951142656.0000             GW IRRIGATION =           0.0000
           SW IRRIGATION =   434718560.0000             SW IRRIGATION =           0.0000
        SYSTEM LOSSES GW =           0.0000          SYSTEM LOSSES GW =           0.0000
        SYSTEM LOSSES SW =           0.0000          SYSTEM LOSSES SW =           0.0000

               TOTAL OUT =  3385861120.0000                 TOTAL OUT =           0.0000

                IN - OUT =       -8448.0000                  IN - OUT =           0.0000

     PERCENT DISCREPANCY =          -0.00         PERCENT DISCREPANCY =           0.00



1
  VOLUMETRIC BUDGET FOR ENTIRE MODEL AT END OF TIME STEP   30, STRESS PERIOD  19
  ------------------------------------------------------------------------------

     CUMULATIVE VOLUMES      L**3       RATES FOR THIS TIME STEP      L**3/T
     ------------------                 ------------------------

           IN:                                      IN:
           ---                                      ---
             STORAGE     =  3322145024.0000               STORAGE     =          26.4238
       CONSTANT HEAD     =           0.0000         CONSTANT HEAD     =           0.0000
     HEAD DEP BOUNDS     =    13557537.0000       HEAD DEP BOUNDS     =           0.2864
      STREAM LEAKAGE     =   579397312.0000        STREAM LEAKAGE     =          12.7099
        UZF RECHARGE     =  2074444288.0000          UZF RECHARGE     =         280.5071
               GW ET     =           0.0000                 GW ET     =           0.0000
     SURFACE LEAKAGE     =           0.0000       SURFACE LEAKAGE     =           0.0000
           AG WELLS      =           0.0000             AG WELLS      =           0.0000

                TOTAL IN =  5989543936.0000                  TOTAL IN =         319.9272

          OUT:                                     OUT:
          ----                                     ----
             STORAGE     =  2525997568.0000               STORAGE     =         310.3509
       CONSTANT HEAD     =           0.0000         CONSTANT HEAD     =           0.0000
     HEAD DEP BOUNDS     =    13810393.0000       HEAD DEP BOUNDS     =           0.2910
      STREAM LEAKAGE     =   497189408.0000        STREAM LEAKAGE     =           9.2782
        UZF RECHARGE     =           0.0000          UZF RECHARGE     =           0.0000
               GW ET     =     1320838.1250                 GW ET     =           0.0000
     SURFACE LEAKAGE     =           0.0000       SURFACE LEAKAGE     =           0.0000
           AG WELLS      =  2951142656.0000             AG WELLS      =           0.0000

               TOTAL OUT =  5989460992.0000                 TOTAL OUT =         319.9200

                IN - OUT =       82944.0000                  IN - OUT =       7.2327E-03

     PERCENT DISCREPANCY =           0.00         PERCENT DISCREPANCY =           0.00






         TIME SUMMARY AT END OF TIME STEP   30 IN STRESS PERIOD   19
                    SECONDS     MINUTES      HOURS       DAYS        YEARS
                    -----------------------------------------------------------
   TIME STEP LENGTH  87667.      1461.1      24.352      1.0147     2.77799E-03
 STRESS PERIOD TIME 2.63000E+06  43833.      730.56      30.440     8.33397E-02
         TOTAL TIME 4.74265E+07 7.90442E+05  13174.      548.92      1.5029    
1
1
                            STRESS PERIOD NO.   20, LENGTH =   2630000.    
                            -----------------------------------------------

                              NUMBER OF TIME STEPS =    30

                               MULTIPLIER FOR DELT =     1.000

                            INITIAL TIME STEP SIZE =   87666.66    

 REUSING NON-PARAMETER GHB CELLS FROM LAST STRESS PERIOD

      2 GHB CELLS

 REUSING STREAM SEGMENT DATA FROM LAST STRESS PERIOD



            AREAL INFILTRATION RATE
 READING ON UNIT   19 WITH FORMAT: (FREE)              

            1           2           3           4           5           6           7           8           9          10
 ........................................................................................................................
   1   1.0000E-10  2.0000E-10   0.000       0.000       0.000       0.000       0.000       0.000       0.000       0.000    
   2   2.0000E-10  1.0000E-10  2.0000E-10   0.000       0.000      8.0000E-10  8.0000E-10  5.0000E-10   0.000       0.000    
   3    0.000      5.0000E-10  1.0000E-10  1.0000E-10  8.0000E-10  8.0000E-10  5.0000E-10  5.0000E-10   0.000       0.000    
   4   8.0000E-10  5.0000E-10  1.0000E-10  1.0000E-10  1.0000E-10  1.0000E-10  1.0000E-10  1.0000E-10  2.0000E-10   0.000    
   5   8.0000E-10  5.0000E-10  1.0000E-10  1.0000E-10  1.0000E-10  1.0000E-10  1.0000E-10  1.0000E-10  1.0000E-10  1.0000E-10
   6   8.0000E-10  5.0000E-10  5.0000E-10  2.0000E-10  2.0000E-10  1.0000E-10  1.0000E-10  1.0000E-10  1.0000E-10  5.0000E-10
   7   8.0000E-10  5.0000E-10  5.0000E-10  2.0000E-10  2.0000E-10  1.0000E-10  1.0000E-10  2.0000E-10  2.0000E-10   0.000    
   8    0.000      5.0000E-10  5.0000E-10  2.0000E-10  2.0000E-10  1.0000E-10  1.0000E-10  2.0000E-10  5.0000E-10   0.000    
   9    0.000      5.0000E-10  5.0000E-10  2.0000E-10  2.0000E-10  1.0000E-10  1.0000E-10  2.0000E-10  5.0000E-10   0.000    
  10    0.000      5.0000E-10  5.0000E-10  2.0000E-10  2.0000E-10  1.0000E-10  1.0000E-10  2.0000E-10  5.0000E-10  8.0000E-10
  11    0.000      1.0000E-10  1.0000E-10  1.0000E-10  1.0000E-10  1.0000E-10  1.0000E-10  2.0000E-10  5.0000E-10   0.000    
  12   1.0000E-10  1.0000E-10  1.0000E-10  1.0000E-10  1.0000E-10  1.0000E-10  1.0000E-10  1.0000E-10  2.0000E-10   0.000    
  13   1.0000E-10  1.0000E-10  2.0000E-10  2.0000E-10  2.0000E-10  2.0000E-10  2.0000E-10  1.0000E-10  1.0000E-10   0.000    
  14    0.000      2.0000E-10  5.0000E-10  5.0000E-10  5.0000E-10  5.0000E-10  5.0000E-10  2.0000E-10  1.0000E-10   0.000    
  15    0.000       0.000      8.0000E-10  8.0000E-10  8.0000E-10  8.0000E-10   0.000       0.000       0.000       0.000    

                  ET RATE =  4.000000E-07

 USING ET EXTINCTION DEPTH FROM PREVIOUS STRESS PERIOD. CURRENT PERIOD IS:      20

 USING EXTINCTION WATER CONTENT FROM PREVIOUS STRESS PERIOD. CURRENT PERIOD IS:      20

 USING AIR ENTRY PRESSURE FROM PREVIOUS STRESS PERIOD. CURRENT PERIOD IS:      20

 USING ROOT PRESSURE HEAD FROM PREVIOUS STRESS PERIOD. CURRENT PERIOD IS:      20

 USING ROOT ACTIVITY FROM PREVIOUS STRESS PERIOD. CURRENT PERIOD IS:      20

 PROCESSING AG STRESS PERIOD DATA

 READING AG STRESS PERIOD DATA

 READING IRRIGATION SEGMENT

 READING IRRIGATION WELL

 READING SUPPLEMENTAL WELL

 NO IRRPOND OR REUSING IRRPOND DATA FROM LAST STRESS PERIOD

 END PROCESSING AG STRESS PERIOD DATA OPTIONS
 
 SOLVING FOR HEAD 
                                                   Max.-Head-Change                         Max.-Flux-Residual
  Residual-Control   Outer-Iter.   Inner-Iter.     Column Row Layer    Maximum-Head-Change  Column Row Layer    Maximum-Flux-Residual          L2-NORM 
          0                 1           2             5    8     1       0.7657822733E+00       5    8    1         0.4153422116E+02      0.7003146507E+02
          0                 2           2             4    8     1      -0.1627695601E+01       5    6    1        -0.8922061689E+02      0.2134595342E+03
          0                 3           2             5    8     1      -0.6937248031E+00       5    8    1        -0.3851762515E+02      0.7334202237E+02
          0                 4           2             5    8     1      -0.2687722310E+00       5    8    1        -0.1530666629E+02      0.1591806340E+02
          0                 5           2             5    8     1       0.1830251694E-01       5    8    1         0.1069826061E+01      0.1085638558E+01
          0                 6           1             5    8     1      -0.7286431469E-03       5    8    1        -0.4371006907E-01      0.4380657348E-01
          0                 7           1             5    8     1       0.8997790079E-05       5    8    1         0.5534702152E-03      0.5671794633E-03

    ------------------------------------------------
       NWT REQUIRED            7 OUTER ITERATIONS 
       AND A TOTAL OF         12 INNER ITERATIONS.
    ------------------------------------------------

 OUTPUT CONTROL FOR STRESS PERIOD   20   TIME STEP    1
    PRINT BUDGET
    SAVE BUDGET
    SAVE BUDGET
    SAVE HEAD FOR ALL LAYERS
 UBDSV1 SAVING "         STORAGE" ON UNIT 102 AT TIME STEP 1, STRESS PERIOD20
 UBDSV2 SAVING "   CONSTANT HEAD" ON UNIT 102 AT TIME STEP 1, STRESS PERIOD 20
 UBDSV1 SAVING "FLOW RIGHT FACE " ON UNIT 102 AT TIME STEP 1, STRESS PERIOD20
 UBDSV1 SAVING "FLOW FRONT FACE " ON UNIT 102 AT TIME STEP 1, STRESS PERIOD20

  HEAD DEP BOUNDS   PERIOD   20   STEP     1
 BOUNDARY      1   LAYER   1   ROW    13   COL     1   RATE   -0.290779    
 BOUNDARY      2   LAYER   1   ROW    14   COL     9   RATE    0.286392    



 STREAM LISTING     PERIOD     20   STEP        1

 LAYER ROW COL. STREAM  RCH.  FLOW INTO     FLOW TO   FLOW OUT OF   OVRLND.     DIRECT     STREAM       STREAM     STREAM     STREAM   STREAMBED  STREAMBED
                SEG.NO.  NO.  STRM. RCH.    AQUIFER    STRM. RCH.    RUNOFF     PRECIP       ET          HEAD       DEPTH      WIDTH   CONDCTNC.   GRADIENT

   1    1    1     1     1    4.0501E+01  3.0566E-01   4.0195E+01  0.000E+00  0.000E+00  0.000E+00  1.09438E+03  1.335E+00  1.567E+01  7.051E-02  1.445E+00
   1    2    2     1     2    4.0195E+01  4.7341E-01   3.9722E+01  0.000E+00  0.000E+00  0.000E+00  1.08939E+03  1.332E+00  1.561E+01  1.093E-01  1.444E+00
   1    3    3     1     3    3.9722E+01  4.0378E-01   3.9318E+01  0.000E+00  0.000E+00  0.000E+00  1.08375E+03  1.329E+00  1.555E+01  9.328E-02  1.443E+00
   1    3    4     1     4    3.9318E+01  3.7185E-01   3.8946E+01  0.000E+00  0.000E+00  0.000E+00  1.07873E+03  1.326E+00  1.549E+01  8.596E-02  1.442E+00
   1    4    5     2     1    3.6946E+01  3.5272E-01   3.6593E+01  0.000E+00  0.000E+00  0.000E+00  1.07346E+03  1.522E+00  1.200E+01  7.800E-02  1.507E+00
   1    5    6     2     2    3.6593E+01  2.7086E-01   3.6322E+01  0.000E+00  0.000E+00  0.000E+00  1.06802E+03  1.514E+00  1.200E+01  6.000E-02  1.505E+00
   1    6    6     2     3    3.6322E+01  2.7045E-01   3.6052E+01  0.000E+00  0.000E+00  0.000E+00  1.06330E+03  1.508E+00  1.200E+01  6.000E-02  1.503E+00
   1    7    6     2     4    3.6052E+01  2.7005E-01   3.5782E+01  0.000E+00  0.000E+00  0.000E+00  1.05858E+03  1.501E+00  1.200E+01  6.000E-02  1.500E+00
   1    8    6     2     5    3.5782E+01  2.6964E-01   3.5512E+01  0.000E+00  0.000E+00  0.000E+00  1.05385E+03  1.494E+00  1.200E+01  6.000E-02  1.498E+00
   1    3    5     3     1    2.0000E+00  2.8252E-01   1.7175E+00  0.000E+00  0.000E+00  0.000E+00  1.07555E+03  1.909E+00  9.636E+00  7.227E-02  1.955E+00
   1    3    6     3     2    1.7175E+00  2.4905E-01   1.4684E+00  0.000E+00  0.000E+00  0.000E+00  1.07264E+03  1.727E+00  8.909E+00  6.682E-02  1.864E+00
   1    3    7     3     3    1.4684E+00  1.9718E-01   1.2712E+00  0.000E+00  0.000E+00  0.000E+00  1.06987E+03  1.555E+00  8.218E+00  5.547E-02  1.777E+00
   1    4    8     3     4    1.2712E+00  2.2567E-01   1.0456E+00  0.000E+00  0.000E+00  0.000E+00  1.06682E+03  1.364E+00  7.455E+00  6.709E-02  1.682E+00
   1    5    8     3     5    1.0456E+00  1.5790E-01   8.8768E-01  0.000E+00  0.000E+00  0.000E+00  1.06362E+03  1.164E+00  6.655E+00  4.991E-02  1.582E+00
   1    6    8     3     6    8.8768E-01  5.5980E-02   8.3170E-01  0.000E+00  0.000E+00  0.000E+00  1.06158E+03  1.036E+00  6.145E+00  1.844E-02  1.518E+00
   1    5   10     4     1    1.0000E+01  9.0919E-02   9.9091E+00  0.000E+00  0.000E+00  0.000E+00  1.07836E+03  6.368E-01  1.000E+01  2.500E-02  1.212E+00
   1    5    9     4     2    9.9091E+00  1.8158E-01   9.7275E+00  0.000E+00  0.000E+00  0.000E+00  1.07154E+03  6.315E-01  1.000E+01  5.000E-02  1.211E+00
   1    6    8     4     3    9.7275E+00  1.2689E-01   9.6006E+00  0.000E+00  0.000E+00  0.000E+00  1.06381E+03  6.256E-01  1.000E+01  3.500E-02  1.209E+00
   1    6    8     5     1    1.0432E+01  2.2686E-01   1.0205E+01  0.000E+00  0.000E+00  0.000E+00  1.05868E+03  6.790E-01  1.542E+01  6.166E-02  1.226E+00
   1    7    7     5     2    1.0205E+01  2.7894E-01   9.9265E+00  0.000E+00  0.000E+00  0.000E+00  1.05417E+03  6.732E-01  1.519E+01  7.594E-02  1.224E+00
   1    8    7     5     3    9.9265E+00  1.9221E-01   9.7343E+00  0.000E+00  0.000E+00  0.000E+00  1.04992E+03  6.676E-01  1.497E+01  5.241E-02  1.223E+00
   1    8    6     5     4    9.7343E+00  1.3577E-01   9.5985E+00  0.000E+00  0.000E+00  0.000E+00  1.04691E+03  6.637E-01  1.482E+01  3.706E-02  1.221E+00
   1    9    6     6     1    9.5985E+00  2.2097E-01   9.3776E+00  0.000E+00  0.000E+00  0.000E+00  1.04341E+03  6.828E-01  1.200E+01  6.000E-02  1.228E+00
   1   10    7     6     2    9.3776E+00  2.2039E-01   9.1572E+00  0.000E+00  0.000E+00  0.000E+00  1.03885E+03  6.732E-01  1.200E+01  6.000E-02  1.224E+00
   1   11    7     6     3    9.1572E+00  2.1981E-01   8.9374E+00  0.000E+00  0.000E+00  0.000E+00  1.03430E+03  6.636E-01  1.200E+01  6.000E-02  1.221E+00
   1   12    7     6     4    8.9374E+00  2.1923E-01   8.7181E+00  0.000E+00  0.000E+00  0.000E+00  1.02974E+03  6.539E-01  1.200E+01  6.000E-02  1.218E+00
   1   13    7     6     5    8.7181E+00 -8.0545E-02   8.7987E+00  0.000E+00  0.000E+00  0.000E+00  1.02656E+03  6.508E-01  1.200E+01  2.400E-01 -1.119E-01
   1   14    9     7     1    1.5000E+02  1.3451E+00   1.4865E+02  0.000E+00  0.000E+00  0.000E+00  1.03987E+03  2.288E+00  5.529E+01  5.593E-01  8.017E-01
   1   13    8     7     2    1.4865E+02  1.8845E+00   1.4677E+02  0.000E+00  0.000E+00  0.000E+00  1.03478E+03  2.279E+00  5.526E+01  6.148E-01  1.022E+00
   1   13    7     7     3    1.4677E+02  1.5601E+00   1.4521E+02  0.000E+00  0.000E+00  0.000E+00  1.02969E+03  2.270E+00  5.521E+01  5.584E-01  9.313E-01
   1   13    6     8     1    1.5401E+02  9.0980E-01   1.5310E+02  0.000E+00  0.000E+00  0.000E+00  1.02472E+03  2.842E+00  4.120E+01  4.199E-01  7.223E-01
   1   13    5     8     2    1.5310E+02  1.7780E-01   1.5292E+02  0.000E+00  0.000E+00  0.000E+00  1.01846E+03  2.838E+00  4.115E+01  4.193E-01  1.413E-01
   1   13    4     8     3    1.5292E+02 -2.6699E+00   1.5559E+02  0.000E+00  0.000E+00  0.000E+00  1.01222E+03  2.847E+00  4.127E+01  4.206E+00 -2.116E-01
   1   13    3     8     4    1.5559E+02 -3.9324E+00   1.5952E+02  0.000E+00  0.000E+00  0.000E+00  1.00599E+03  2.869E+00  4.160E+01  4.240E+00 -3.092E-01
   1   13    2     8     5    1.5952E+02 -2.9756E+00   1.6250E+02  0.000E+00  0.000E+00  0.000E+00  9.99768E+02  2.893E+00  4.194E+01  4.274E+00 -2.321E-01
   1   13    1     8     6    1.6250E+02 -2.2367E+00   1.6474E+02  0.000E+00  0.000E+00  0.000E+00  9.94785E+02  2.910E+00  4.220E+01  2.580E+00 -2.890E-01
   1    8    6     9     1    3.5512E+01  0.0000E+00   3.5512E+01  0.000E+00  0.000E+00  0.000E+00  1.08360E+03  4.847E+00  4.000E+00  0.000E+00  2.616E+00
   1    8    5     9     2    3.5512E+01  0.0000E+00   3.5512E+01  0.000E+00  0.000E+00  0.000E+00  1.08310E+03  4.847E+00  4.000E+00  0.000E+00  2.616E+00



 UBDSV3 SAVING "           GW ET" ON UNIT  61 AT TIME STEP 1, STRESS PERIOD 20
 UBDSV3 SAVING "    UZF RECHARGE" ON UNIT  61 AT TIME STEP 1, STRESS PERIOD 20
 UBDSV3 SAVING " SURFACE LEAKAGE" ON UNIT  61 AT TIME STEP 1, STRESS PERIOD 20
 UBDSV3 SAVING "       HORT+DUNN" ON UNIT  61 AT TIME STEP 1, STRESS PERIOD 20
 UBDSV3 SAVING "  STORAGE CHANGE" ON UNIT  61 AT TIME STEP 1, STRESS PERIOD 20


UNSATURATED ZONE PACKAGE VOLUMETRIC BUDGET FOR  TIME STEP     1 STRESS PERIOD   20
  ------------------------------------------------------------------------------



     CUMULATIVE VOLUMES      L**3       RATES FOR THIS TIME STEP      L**3/T
     ------------------                 ------------------------

           IN:                                      IN:
           ---                                      ---
        INFILTRATION =  3481819342.5035          INFILTRATION =         636.3604

          OUT:                                     OUT:
          ----                                     ----
              UZF ET =   539510803.5437                UZF ET =          60.8175
        UZF RECHARGE =  2074444553.1270          UZF RECHARGE =       0.0000E+00

            IN - OUT =   867863985.8329              IN - OUT =         575.5429

          STORAGE:                                 STORAGE:
          --------                                 --------
      STORAGE CHANGE =   868661840.5778        STORAGE CHANGE =         575.5319

 PERCENT DISCREPANCY IS DIFFERENCE BETWEEN IN-OUT MINUS CHANGE IN STORAGE
 DIVIDED BY THE AVERAGE OF IN AND OUT TIMES 100

 PERCENT DISCREPANCY =          -0.01     PERCENT DISCREPANCY =           0.00






 

            AG WELLS      PERIOD   20   STEP   1
 AG WELL      1   LAYER   1   ROW     6   COL     4   RATE    -100.000    
 AG WELL      2   LAYER   1   ROW     6   COL     5   RATE    -100.000    
 AG WELL      3   LAYER   1   ROW     7   COL     4   RATE    -100.000    
 AG WELL      4   LAYER   1   ROW     7   COL     5   RATE    -100.000    
 AG WELL      5   LAYER   1   ROW     8   COL     4   RATE    -100.000    
 AG WELL      6   LAYER   1   ROW     8   COL     5   RATE    -100.000    
 
 

   DIVERSION SEGMENTS     PERIOD   20   STEP   1
 SEGMENT      9   RATE     35.5122    
 
 

        SW IRRIGATION     PERIOD   20   STEP   1
 SEGMENT      9   ROW     6   COL     4   RATE     5.91882    
 SEGMENT      9   ROW     6   COL     5   RATE     5.91882    
 SEGMENT      9   ROW     7   COL     4   RATE     5.91882    
 SEGMENT      9   ROW     7   COL     5   RATE     5.91882    
 SEGMENT      9   ROW     8   COL     4   RATE     5.91882    
 SEGMENT      9   ROW     8   COL     5   RATE     5.91882    
 
 

        GW IRRIGATION     PERIOD   20   STEP   1
 AG WELL      1   ROW     6   COL     4   RATE     100.000    
 AG WELL      2   ROW     6   COL     5   RATE     100.000    
 AG WELL      3   ROW     7   COL     4   RATE     100.000    
 AG WELL      4   ROW     7   COL     5   RATE     100.000    
 AG WELL      5   ROW     8   COL     4   RATE     100.000    
 AG WELL      6   ROW     8   COL     5   RATE     100.000    
 
1
  VOLUMETRIC BUDGET FOR AGRICULTURAL FIELDS AT  END OF TIME STEP    1, STRESS PERIOD  20
  ------------------------------------------------------------------------------

     CUMULATIVE VOLUMES      L**3       RATES FOR THIS TIME STEP      L**3/T
     ------------------                 ------------------------

           IN:                                      IN:
           ---                                      ---
               AG WELLS  =  3003742720.0000                 AG WELLS  =         600.0000
      DIVERSION SEGMENTS =   437823168.0000        DIVERSION SEGMENTS =          35.5122
       IRRIGATION PONDS  =           0.0000         IRRIGATION PONDS  =           0.0000
           GW IRRIGATION =           0.0000             GW IRRIGATION =           0.0000
           SW IRRIGATION =           0.0000             SW IRRIGATION =           0.0000
        SYSTEM LOSSES GW =           0.0000          SYSTEM LOSSES GW =           0.0000
        SYSTEM LOSSES SW =           0.0000          SYSTEM LOSSES SW =           0.0000

                TOTAL IN =  3441565952.0000                  TOTAL IN =         635.5122

          OUT:                                     OUT:
          ----                                     ----
               AG WELLS  =           0.0000                 AG WELLS  =           0.0000
      DIVERSION SEGMENTS =           0.0000        DIVERSION SEGMENTS =           0.0000
       IRRIGATION PONDS  =           0.0000         IRRIGATION PONDS  =           0.0000
           GW IRRIGATION =  3003742720.0000             GW IRRIGATION =         600.0000
           SW IRRIGATION =   437831872.0000             SW IRRIGATION =          35.5129
        SYSTEM LOSSES GW =           0.0000          SYSTEM LOSSES GW =           0.0000
        SYSTEM LOSSES SW =           0.0000          SYSTEM LOSSES SW =           0.0000

               TOTAL OUT =  3441574656.0000                 TOTAL OUT =         635.5129

                IN - OUT =       -8704.0000                  IN - OUT =      -7.3242E-04

     PERCENT DISCREPANCY =          -0.00         PERCENT DISCREPANCY =          -0.00




 HEAD WILL BE SAVED ON UNIT   62 AT END OF TIME STEP    1, STRESS PERIOD   20
1
  VOLUMETRIC BUDGET FOR ENTIRE MODEL AT END OF TIME STEP    1, STRESS PERIOD  20
  ------------------------------------------------------------------------------

     CUMULATIVE VOLUMES      L**3       RATES FOR THIS TIME STEP      L**3/T
     ------------------                 ------------------------

           IN:                                      IN:
           ---                                      ---
             STORAGE     =  3374745856.0000               STORAGE     =         600.0099
       CONSTANT HEAD     =           0.0000         CONSTANT HEAD     =           0.0000
     HEAD DEP BOUNDS     =    13582644.0000       HEAD DEP BOUNDS     =           0.2864
      STREAM LEAKAGE     =   580462272.0000        STREAM LEAKAGE     =          12.1477
        UZF RECHARGE     =  2074444288.0000          UZF RECHARGE     =           0.0000
               GW ET     =           0.0000                 GW ET     =           0.0000
     SURFACE LEAKAGE     =           0.0000       SURFACE LEAKAGE     =           0.0000
           AG WELLS      =           0.0000             AG WELLS      =           0.0000

                TOTAL IN =  6043235328.0000                  TOTAL IN =         612.4440

          OUT:                                     OUT:
          ----                                     ----
             STORAGE     =  2526020096.0000               STORAGE     =           0.2580
       CONSTANT HEAD     =           0.0000         CONSTANT HEAD     =           0.0000
     HEAD DEP BOUNDS     =    13835885.0000       HEAD DEP BOUNDS     =           0.2908
      STREAM LEAKAGE     =   498232224.0000        STREAM LEAKAGE     =          11.8951
        UZF RECHARGE     =           0.0000          UZF RECHARGE     =           0.0000
               GW ET     =     1320838.1250                 GW ET     =           0.0000
     SURFACE LEAKAGE     =           0.0000       SURFACE LEAKAGE     =           0.0000
           AG WELLS      =  3003742720.0000             AG WELLS      =         600.0000

               TOTAL OUT =  6043151872.0000                 TOTAL OUT =         612.4440

                IN - OUT =       83456.0000                  IN - OUT =           0.0000

     PERCENT DISCREPANCY =           0.00         PERCENT DISCREPANCY =           0.00






         TIME SUMMARY AT END OF TIME STEP    1 IN STRESS PERIOD   20
                    SECONDS     MINUTES      HOURS       DAYS        YEARS
                    -----------------------------------------------------------
   TIME STEP LENGTH  87667.      1461.1      24.352      1.0147     2.77799E-03
 STRESS PERIOD TIME  87667.      1461.1      24.352      1.0147     2.77799E-03
         TOTAL TIME 4.75142E+07 7.91903E+05  13198.      549.93      1.5056    
1
 
 SOLVING FOR HEAD 
                                                   Max.-Head-Change                         Max.-Flux-Residual
  Residual-Control   Outer-Iter.   Inner-Iter.     Column Row Layer    Maximum-Head-Change  Column Row Layer    Maximum-Flux-Residual          L2-NORM 
          0                 1           2             5    7     1       0.3086717410E+00       5    6    1         0.1660459983E+02      0.3565208951E+02
          0                 2           2             4    6     1      -0.1846789085E+01       4    6    1        -0.1007450295E+03      0.2304256391E+03
          0                 3           2             5    7     1      -0.2358625234E+00       5    6    1        -0.1292695653E+02      0.2664431114E+02
          0                 4           2             5    7     1       0.1606229943E-01       5    7    1         0.9045309829E+00      0.1822152778E+01
          0                 5           2             5    7     1      -0.6392920249E-03       5    7    1        -0.3699744944E-01      0.7369616578E-01
          0                 6           1             5    7     1       0.7888603966E-05       5    7    1         0.4687357796E-03      0.9564489497E-03

    ------------------------------------------------
       NWT REQUIRED            6 OUTER ITERATIONS 
       AND A TOTAL OF         11 INNER ITERATIONS.
    ------------------------------------------------

 NO OUTPUT CONTROL FOR STRESS PERIOD   20   TIME STEP    2
 
 SOLVING FOR HEAD 
                                                   Max.-Head-Change                         Max.-Flux-Residual
  Residual-Control   Outer-Iter.   Inner-Iter.     Column Row Layer    Maximum-Head-Change  Column Row Layer    Maximum-Flux-Residual          L2-NORM 
          0                 1           2             4    6     1       0.1704822758E+00       4    6    1         0.9107789131E+01      0.2262142913E+02
          0                 2           2             4    7     1      -0.1878877360E+01       4    6    1        -0.1009107537E+03      0.2469676390E+03
          0                 3           2             4    7     1       0.1279246900E+00       4    6    1         0.7062158714E+01      0.1731014175E+02
          0                 4           2             4    7     1      -0.5090338570E-02       4    6    1        -0.2887939658E+00      0.7136589059E+00
          0                 5           1             7   13     1       0.8746004493E-04       7   13    1         0.5012794743E-02      0.1061825703E-01

    ------------------------------------------------
       NWT REQUIRED            5 OUTER ITERATIONS 
       AND A TOTAL OF          9 INNER ITERATIONS.
    ------------------------------------------------

 NO OUTPUT CONTROL FOR STRESS PERIOD   20   TIME STEP    3
 
 SOLVING FOR HEAD 
                                                   Max.-Head-Change                         Max.-Flux-Residual
  Residual-Control   Outer-Iter.   Inner-Iter.     Column Row Layer    Maximum-Head-Change  Column Row Layer    Maximum-Flux-Residual          L2-NORM 
          0                 1           2             5    6     1       0.2098509738E+00       5    6    1         0.1139930839E+02      0.2766801105E+02
          0                 2           2             4    7     1      -0.1879718197E+01       5    6    1        -0.1011398712E+03      0.2473718984E+03
          0                 3           2             4    7     1       0.1279822709E+00       5    6    1         0.7077966959E+01      0.1733854867E+02
          0                 4           2             4    7     1      -0.5092628165E-02       5    6    1        -0.2894091553E+00      0.7147805232E+00
          0                 5           1             7   13     1       0.8714281139E-04       7   13    1         0.4994628631E-02      0.1061838563E-01

    ------------------------------------------------
       NWT REQUIRED            5 OUTER ITERATIONS 
       AND A TOTAL OF          9 INNER ITERATIONS.
    ------------------------------------------------

 NO OUTPUT CONTROL FOR STRESS PERIOD   20   TIME STEP    4
 
 SOLVING FOR HEAD 
                                                   Max.-Head-Change                         Max.-Flux-Residual
  Residual-Control   Outer-Iter.   Inner-Iter.     Column Row Layer    Maximum-Head-Change  Column Row Layer    Maximum-Flux-Residual          L2-NORM 
          0                 1           2             5    6     1       0.2520705225E+00       5    6    1         0.1371512750E+02      0.3261757663E+02
          0                 2           2             4    7     1      -0.1880625703E+01       5    6    1        -0.1013714313E+03      0.2477622062E+03
          0                 3           2             4    7     1       0.1280443686E+00       5    6    1         0.7094264276E+01      0.1736599912E+02
          0                 4           2             4    7     1      -0.5095097599E-02       5    6    1        -0.2900844007E+00      0.7158683500E+00
          0                 5           1             7   13     1       0.8683088014E-04       7   13    1         0.4976770369E-02      0.1061931363E-01

    ------------------------------------------------
       NWT REQUIRED            5 OUTER ITERATIONS 
       AND A TOTAL OF          9 INNER ITERATIONS.
    ------------------------------------------------

 NO OUTPUT CONTROL FOR STRESS PERIOD   20   TIME STEP    5
 
 SOLVING FOR HEAD 
                                                   Max.-Head-Change                         Max.-Flux-Residual
  Residual-Control   Outer-Iter.   Inner-Iter.     Column Row Layer    Maximum-Head-Change  Column Row Layer    Maximum-Flux-Residual          L2-NORM 
          0                 1           2             5    6     1       0.2920946174E+00       5    6    1         0.1590881136E+02      0.3741094962E+02
          0                 2           2             4    7     1      -0.1881593417E+01       5    6    1        -0.1015907757E+03      0.2481391337E+03
          0                 3           2             4    7     1       0.1281105443E+00       5    6    1         0.7109701441E+01      0.1739252866E+02
          0                 4           2             4    7     1      -0.5097729405E-02       5    6    1        -0.2907239325E+00      0.7169232017E+00
          0                 5           1             7   13     1       0.8652467768E-04       7   13    1         0.4959235937E-02      0.1062099147E-01

    ------------------------------------------------
       NWT REQUIRED            5 OUTER ITERATIONS 
       AND A TOTAL OF          9 INNER ITERATIONS.
    ------------------------------------------------

 NO OUTPUT CONTROL FOR STRESS PERIOD   20   TIME STEP    6
 
 SOLVING FOR HEAD 
                                                   Max.-Head-Change                         Max.-Flux-Residual
  Residual-Control   Outer-Iter.   Inner-Iter.     Column Row Layer    Maximum-Head-Change  Column Row Layer    Maximum-Flux-Residual          L2-NORM 
          0                 1           2             5    8     1       0.6192242764E+00       5    8    1         0.3400934897E+02      0.5110665640E+02
          0                 2           2             4    7     1      -0.1882464084E+01       5    6    1        -0.1017987033E+03      0.2405032556E+03
          0                 3           2             5    8     1      -0.5939056458E+00       5    8    1        -0.3388232301E+02      0.3742532431E+02
          0                 4           2             5    8     1       0.4042178436E-01       5    8    1         0.2364075929E+01      0.2456837920E+01
          0                 5           1             5    8     1      -0.1608922169E-02       5    8    1        -0.9644753852E-01      0.9711717983E-01
          0                 6           1             5    8     1       0.1985325374E-04       5    8    1         0.1217133161E-02      0.1253747444E-02

    ------------------------------------------------
       NWT REQUIRED            6 OUTER ITERATIONS 
       AND A TOTAL OF         10 INNER ITERATIONS.
    ------------------------------------------------

 NO OUTPUT CONTROL FOR STRESS PERIOD   20   TIME STEP    7
 
 SOLVING FOR HEAD 
                                                   Max.-Head-Change                         Max.-Flux-Residual
  Residual-Control   Outer-Iter.   Inner-Iter.     Column Row Layer    Maximum-Head-Change  Column Row Layer    Maximum-Flux-Residual          L2-NORM 
          0                 1           2             5    8     1       0.1628208579E+01       5    8    1         0.8957125797E+02      0.1008709217E+03
          0                 2           2             4    7     1      -0.1878242161E+01       4    6    1        -0.1016589742E+03      0.2161079346E+03
          0                 3           2             5    8     1      -0.5345737665E+00       5    8    1        -0.3011040431E+02      0.3779755975E+02
          0                 4           2             5    8     1      -0.3147307160E+00       5    8    1        -0.1785850972E+02      0.1792093117E+02
          0                 5           2             5    8     1      -0.1853039229E+00       5    8    1        -0.1050501970E+02      0.1050521892E+02
          0                 6           2             5    8     1      -0.1091021257E+00       5    8    1        -0.6185167764E+01      0.6185176069E+01
          0                 7           2             5    8     1      -0.6423662814E-01       5    8    1        -0.3641577224E+01      0.3641582412E+01
          0                 8           2             5    8     1      -0.3782088013E-01       5    8    1        -0.2144028238E+01      0.2144031294E+01
          0                 9           2             5    8     1      -0.2226788603E-01       5    8    1        -0.1262325895E+01      0.1262327696E+01
          0                10           2             5    8     1      -0.1311065166E-01       5    8    1        -0.7432096935E+00      0.7432107546E+00
                                                   Max.-Head-Change                         Max.-Flux-Residual
  Residual-Control   Outer-Iter.   Inner-Iter.     Column Row Layer    Maximum-Head-Change  Column Row Layer    Maximum-Flux-Residual          L2-NORM 
          0                11           2             5    8     1      -0.7719109164E-02       5    8    1        -0.4375718875E+00      0.4375725125E+00
          0                12           1             5    8     1      -0.4544724035E-02       5    8    1        -0.2576233469E+00      0.2576237149E+00
          0                13           1             5    8     1      -0.2675747774E-02       5    8    1        -0.1516765838E+00      0.1516768005E+00
          0                14           1             5    8     1      -0.1575360984E-02       5    8    1        -0.8929954166E-01      0.8929966925E-01
          0                15           1             5    8     1      -0.9274963673E-03       5    8    1        -0.5257474895E-01      0.5257482407E-01
          0                16           1             5    8     1      -0.5460614854E-03       5    8    1        -0.3095297676E-01      0.3095302099E-01
          0                17           1             5    8     1      -0.3214904365E-03       5    8    1        -0.1822320844E-01      0.1822323448E-01
          0                18           1             5    8     1      -0.1892743430E-03       5    8    1        -0.1072863459E-01      0.1072864993E-01
          0                19           1             5    8     1      -0.1114326881E-03       5    8    1        -0.6316278119E-02      0.6316287144E-02
          0                20           1             5    8     1      -0.6560404804E-04       5    8    1        -0.3718563563E-02      0.3718568879E-02

    ------------------------------------------------
       NWT REQUIRED           20 OUTER ITERATIONS 
       AND A TOTAL OF         31 INNER ITERATIONS.
    ------------------------------------------------

 NO OUTPUT CONTROL FOR STRESS PERIOD   20   TIME STEP    8
 
 SOLVING FOR HEAD 
                                                   Max.-Head-Change                         Max.-Flux-Residual
  Residual-Control   Outer-Iter.   Inner-Iter.     Column Row Layer    Maximum-Head-Change  Column Row Layer    Maximum-Flux-Residual          L2-NORM 
          0                 1           2             5    8     1       0.2294662833E+01       5    8    1         0.1248225517E+03      0.1820029523E+03
          0                 2           2             4    7     1      -0.1642395784E+01       4    7    1        -0.8899778226E+02      0.1592587167E+03
          0                 3           2             5    7     1      -0.6808145354E+00       5    7    1        -0.3766374691E+02      0.6653624963E+02
          0                 4           2             5    7     1      -0.4099582776E+00       5    7    1        -0.2279205097E+02      0.3817499000E+02
          0                 5           2             5    7     1      -0.2469396593E+00       5    7    1        -0.1371628213E+02      0.2305528016E+02
          0                 6           2             5    7     1      -0.1487878150E+00       5    7    1        -0.8262241139E+01      0.1394905580E+02
          0                 7           2             4    8     1      -0.8436817816E-01       4    8    1        -0.4663179356E+01      0.6839791919E+01
          0                 8           2             4    8     1      -0.5109909327E-01       4    8    1        -0.2824388071E+01      0.4092200123E+01
          0                 9           2             4    8     1      -0.3094912159E-01       4    8    1        -0.1710610991E+01      0.2453317437E+01
          0                10           2             4    8     1      -0.1874491356E-01       4    8    1        -0.1036046912E+01      0.1471628403E+01
                                                   Max.-Head-Change                         Max.-Flux-Residual
  Residual-Control   Outer-Iter.   Inner-Iter.     Column Row Layer    Maximum-Head-Change  Column Row Layer    Maximum-Flux-Residual          L2-NORM 
          0                11           2             4    8     1      -0.1135319564E-01       4    8    1        -0.6274913390E+00      0.8830458762E+00
          0                12           2             4    8     1      -0.6876256630E-02       4    8    1        -0.3800456102E+00      0.5300484115E+00
          0                13           2             4    8     1      -0.4164713167E-02       4    8    1        -0.2301775906E+00      0.3182663533E+00
          0                14           2             4    8     1      -0.2522417772E-02       4    8    1        -0.1394085646E+00      0.1911638749E+00
          0                15           2             4    8     1      -0.1527733885E-02       4    8    1        -0.8443349947E-01      0.1148570348E+00
          0                16           2             4    8     1      -0.9252882937E-03       4    8    1        -0.5113743050E-01      0.6903077798E-01
          0                17           2             4    8     1      -0.5604088574E-03       4    8    1        -0.3097145996E-01      0.4150094346E-01
          0                18           2             4    8     1      -0.3394152839E-03       4    8    1        -0.1875784823E-01      0.2495742539E-01
          0                19           2             4    8     1      -0.2055683274E-03       4    8    1        -0.1136064095E-01      0.1501290456E-01
          0                20           2             4    8     1      -0.1245028630E-03       4    8    1        -0.6880516609E-02      0.9033359035E-02
          0                21           1             4    8     1      -0.7540515428E-04       4    8    1        -0.4167135149E-02      0.5436881513E-02

    ------------------------------------------------
       NWT REQUIRED           21 OUTER ITERATIONS 
       AND A TOTAL OF         41 INNER ITERATIONS.
    ------------------------------------------------

 NO OUTPUT CONTROL FOR STRESS PERIOD   20   TIME STEP    9
 
 SOLVING FOR HEAD 
                                                   Max.-Head-Change                         Max.-Flux-Residual
  Residual-Control   Outer-Iter.   Inner-Iter.     Column Row Layer    Maximum-Head-Change  Column Row Layer    Maximum-Flux-Residual          L2-NORM 
          0                 1           2             5    6     1       0.2374558668E+01       5    6    1         0.1281001887E+03      0.2684172570E+03
          0                 2           2             4    7     1      -0.1075213267E+01       4    7    1        -0.5865232235E+02      0.9416752065E+02
          0                 3           2             4    7     1      -0.6612104868E+00       4    7    1        -0.3605467823E+02      0.5798024318E+02
          0                 4           2             4    7     1      -0.4067296401E+00       4    7    1        -0.2217226785E+02      0.3572943300E+02
          0                 5           2             4    7     1      -0.2502543980E+00       4    7    1        -0.1363884858E+02      0.2202473431E+02
          0                 6           2             4    7     1      -0.1540133329E+00       4    7    1        -0.8391813095E+01      0.1357946435E+02
          0                 7           2             4    7     1      -0.9480425897E-01       4    7    1        -0.5164575896E+01      0.8373932272E+01
          0                 8           2             4    7     1      -0.5836916638E-01       4    7    1        -0.3179115337E+01      0.5164671775E+01
          0                 9           2             4    7     1      -0.3594340027E-01       4    7    1        -0.1957328458E+01      0.3185775288E+01
          0                10           2             4    6     1      -0.1837042855E-01       4    6    1        -0.1016968684E+01      0.1570479107E+01
                                                   Max.-Head-Change                         Max.-Flux-Residual
  Residual-Control   Outer-Iter.   Inner-Iter.     Column Row Layer    Maximum-Head-Change  Column Row Layer    Maximum-Flux-Residual          L2-NORM 
          0                11           2             4    6     1      -0.1107046551E-01       4    6    1        -0.6148491548E+00      0.9460269177E+00
          0                12           2             4    6     1      -0.6673027699E-02       4    6    1        -0.3703766296E+00      0.5742764593E+00
          0                13           2             4    6     1      -0.4023342673E-02       4    6    1        -0.2232677801E+00      0.3488655149E+00
          0                14           2             4    6     1      -0.2426358666E-02       4    6    1        -0.1346146550E+00      0.2119506947E+00
          0                15           2             4    6     1      -0.1463604592E-02       4    6    1        -0.8118295990E-01      0.1287861977E+00
          0                16           2             4    6     1      -0.8830601920E-03       4    6    1        -0.4897084499E-01      0.7826252988E-01
          0                17           2             4    6     1      -0.5329073348E-03       4    6    1        -0.2954662156E-01      0.4756466784E-01
          0                18           2             4    6     1      -0.3216659375E-03       4    6    1        -0.1783087300E-01      0.2891059663E-01
          0                19           2             4    6     1      -0.1941992935E-03       4    6    1        -0.1076289435E-01      0.1757389443E-01
          0                20           2             4    6     1      -0.1172672366E-03       4    6    1        -0.6497921444E-02      0.1068351187E-01
          0                21           1             4    6     1      -0.7082555163E-04       4    6    1        -0.3923792482E-02      0.6495193763E-02

    ------------------------------------------------
       NWT REQUIRED           21 OUTER ITERATIONS 
       AND A TOTAL OF         41 INNER ITERATIONS.
    ------------------------------------------------

 NO OUTPUT CONTROL FOR STRESS PERIOD   20   TIME STEP   10
 
 SOLVING FOR HEAD 
                                                   Max.-Head-Change                         Max.-Flux-Residual
  Residual-Control   Outer-Iter.   Inner-Iter.     Column Row Layer    Maximum-Head-Change  Column Row Layer    Maximum-Flux-Residual          L2-NORM 
          0                 1           2             4    6     1       0.2407840779E+01       4    6    1         0.1277913789E+03      0.3009573315E+03
          0                 2           2             5    8     1      -0.7185174122E+00       5    8    1        -0.4000032914E+02      0.6917834183E+02
          0                 3           2             5    8     1      -0.4323497466E+00       5    8    1        -0.2403702950E+02      0.4242033745E+02
          0                 4           2             4    8     1      -0.1852451469E+00       4    8    1        -0.1010251852E+02      0.2273861198E+02
          0                 5           2             4    7     1      -0.1151414374E+00       4    8    1        -0.6211392354E+01      0.1348078668E+02
          0                 6           2             4    7     1      -0.7190314929E-01       4    7    1        -0.3867094578E+01      0.8301765675E+01
          0                 7           2             4    7     1      -0.4487025872E-01       4    7    1        -0.2414690135E+01      0.5114012994E+01
          0                 8           2             4    7     1      -0.2798255464E-01       4    7    1        -0.1506728730E+01      0.3151193066E+01
          0                 9           2             4    7     1      -0.1744037213E-01       4    7    1        -0.9395702335E+00      0.1942213255E+01
          0                10           2             4    7     1      -0.1086383622E-01       4    7    1        -0.5855516267E+00      0.1197335393E+01
                                                   Max.-Head-Change                         Max.-Flux-Residual
  Residual-Control   Outer-Iter.   Inner-Iter.     Column Row Layer    Maximum-Head-Change  Column Row Layer    Maximum-Flux-Residual          L2-NORM 
          0                11           2             4    7     1      -0.6763748424E-02       4    7    1        -0.3647221730E+00      0.7382802448E+00
          0                12           2             4    7     1      -0.4209054681E-02       4    7    1        -0.2270584610E+00      0.4553064638E+00
          0                13           2             4    7     1      -0.2618118327E-02       4    7    1        -0.1412887920E+00      0.2808375242E+00
          0                14           2             4    7     1      -0.1627852235E-02       4    7    1        -0.8787933963E-01      0.1732477912E+00
          0                15           2             4    7     1      -0.1011751788E-02       4    7    1        -0.5463717110E-01      0.1068894456E+00
          0                16           2             4    7     1      -0.6286045666E-03       4    7    1        -0.3395659572E-01      0.6595542151E-01
          0                17           2             4    7     1      -0.3904235161E-03       4    7    1        -0.2109627403E-01      0.4070140332E-01
          0                18           2             4    7     1      -0.2424146108E-03       4    7    1        -0.1310217182E-01      0.2511925157E-01
          0                19           2             4    7     1      -0.1504716719E-03       4    7    1        -0.8134786476E-02      0.1550380043E-01
          0                20           1             4    7     1      -0.9337527616E-04       4    7    1        -0.5049205331E-02      0.9569736816E-02

    ------------------------------------------------
       NWT REQUIRED           20 OUTER ITERATIONS 
       AND A TOTAL OF         39 INNER ITERATIONS.
    ------------------------------------------------

 NO OUTPUT CONTROL FOR STRESS PERIOD   20   TIME STEP   11
 
 SOLVING FOR HEAD 
                                                   Max.-Head-Change                         Max.-Flux-Residual
  Residual-Control   Outer-Iter.   Inner-Iter.     Column Row Layer    Maximum-Head-Change  Column Row Layer    Maximum-Flux-Residual          L2-NORM 
          0                 1           2             4    6     1       0.2371616960E+01       4    6    1         0.1258100229E+03      0.2942906083E+03
          0                 2           2             5    8     1      -0.8332539764E+00       5    8    1        -0.4647942656E+02      0.7428334641E+02
          0                 3           2             5    8     1      -0.5002273263E+00       5    8    1        -0.2786943567E+02      0.4547306817E+02
          0                 4           2             5    8     1      -0.3005395769E+00       5    8    1        -0.1673296113E+02      0.2787190303E+02
          0                 5           2             4    8     1      -0.1199024310E+00       4    8    1        -0.6535294924E+01      0.1469706525E+02
          0                 6           2             4    8     1      -0.7330173510E-01       4    8    1        -0.4020595243E+01      0.8618945644E+01
          0                 7           2             4    8     1      -0.4468081908E-01       4    8    1        -0.2456157606E+01      0.5255983980E+01
          0                 8           2             4    7     1      -0.2785016168E-01       4    8    1        -0.1496736911E+01      0.3224204232E+01
          0                 9           2             4    7     1      -0.1739034035E-01       4    7    1        -0.9353273306E+00      0.1979649810E+01
          0                10           2             4    7     1      -0.1084976836E-01       4    7    1        -0.5839802156E+00      0.1215807314E+01
                                                   Max.-Head-Change                         Max.-Flux-Residual
  Residual-Control   Outer-Iter.   Inner-Iter.     Column Row Layer    Maximum-Head-Change  Column Row Layer    Maximum-Flux-Residual          L2-NORM 
          0                11           2             4    7     1      -0.6763799039E-02       4    7    1        -0.3643068553E+00      0.7468262442E+00
          0                12           2             4    7     1      -0.4213498403E-02       4    7    1        -0.2270894569E+00      0.4588265933E+00
          0                13           2             4    7     1      -0.2623004306E-02       4    7    1        -0.1414525888E+00      0.2819344766E+00
          0                14           2             4    7     1      -0.1631847097E-02       4    7    1        -0.8805034423E-01      0.1732661835E+00
          0                15           2             4    7     1      -0.1014618449E-02       4    7    1        -0.5477438612E-01      0.1064977739E+00
          0                16           2             4    7     1      -0.6305011307E-03       4    7    1        -0.3405404105E-01      0.6546716141E-01
          0                17           2             4    7     1      -0.3916015475E-03       4    7    1        -0.2116027483E-01      0.4024928452E-01
          0                18           2             4    7     1      -0.2431043219E-03       4    7    1        -0.1314168098E-01      0.2474800572E-01
          0                19           2             4    7     1      -0.1508495122E-03       4    7    1        -0.8157774833E-02      0.1521828339E-01
          0                20           1             4    7     1      -0.9356432202E-04       4    7    1        -0.5061704365E-02      0.9359030658E-02

    ------------------------------------------------
       NWT REQUIRED           20 OUTER ITERATIONS 
       AND A TOTAL OF         39 INNER ITERATIONS.
    ------------------------------------------------

 NO OUTPUT CONTROL FOR STRESS PERIOD   20   TIME STEP   12
 
 SOLVING FOR HEAD 
                                                   Max.-Head-Change                         Max.-Flux-Residual
  Residual-Control   Outer-Iter.   Inner-Iter.     Column Row Layer    Maximum-Head-Change  Column Row Layer    Maximum-Flux-Residual          L2-NORM 
          0                 1           2             4    6     1       0.2336868757E+01       4    6    1         0.1240523653E+03      0.2842961458E+03
          0                 2           2             5    8     1      -0.7904607963E+00       5    8    1        -0.4378721229E+02      0.8326559644E+02
          0                 3           2             5    8     1      -0.4781129307E+00       5    8    1        -0.2645887932E+02      0.5110025614E+02
          0                 4           2             5    8     1      -0.2893528572E+00       5    8    1        -0.1600548795E+02      0.3138534687E+02
          0                 5           2             5    8     1      -0.1752127817E+00       5    8    1        -0.9686746812E+01      0.1928635790E+02
          0                 6           2             5    7     1      -0.9846586858E-01       5    7    1        -0.5394523673E+01      0.1087581097E+02
          0                 7           2             5    7     1      -0.5992384954E-01       5    7    1        -0.3299792205E+01      0.6401175615E+01
          0                 8           2             5    7     1      -0.3638606896E-01       5    7    1        -0.2006955740E+01      0.3899400673E+01
          0                 9           2             5    7     1      -0.2208200026E-01       5    7    1        -0.1218380814E+01      0.2387967778E+01
          0                10           2             4    8     1      -0.1242278240E-01       4    8    1        -0.6843242435E+00      0.1311173434E+01
                                                   Max.-Head-Change                         Max.-Flux-Residual
  Residual-Control   Outer-Iter.   Inner-Iter.     Column Row Layer    Maximum-Head-Change  Column Row Layer    Maximum-Flux-Residual          L2-NORM 
          0                11           2             4    8     1      -0.7551715697E-02       4    8    1        -0.4160227315E+00      0.7783072721E+00
          0                12           2             4    8     1      -0.4590676301E-02       4    8    1        -0.2528909912E+00      0.4727084941E+00
          0                13           2             4    8     1      -0.2790884459E-02       4    8    1        -0.1537301082E+00      0.2880940520E+00
          0                14           2             4    8     1      -0.1696901449E-02       4    8    1        -0.9345908657E-01      0.1756886002E+00
          0                15           2             4    7     1      -0.1035884685E-02       4    8    1        -0.5682443961E-01      0.1071682035E+00
          0                16           2             4    7     1      -0.6370347636E-03       4    7    1        -0.3472964860E-01      0.6538612475E-01
          0                17           2             4    7     1      -0.3917013553E-03       4    7    1        -0.2135691472E-01      0.3990240777E-01
          0                18           2             4    7     1      -0.2408201748E-03       4    7    1        -0.1313161443E-01      0.2435576753E-01
          0                19           2             4    7     1      -0.1480399220E-03       4    7    1        -0.8073169656E-02      0.1486921319E-01
          0                20           1             4    7     1      -0.9099428971E-04       4    7    1        -0.4962704669E-02      0.9079283041E-02

    ------------------------------------------------
       NWT REQUIRED           20 OUTER ITERATIONS 
       AND A TOTAL OF         39 INNER ITERATIONS.
    ------------------------------------------------

 NO OUTPUT CONTROL FOR STRESS PERIOD   20   TIME STEP   13
 
 SOLVING FOR HEAD 
                                                   Max.-Head-Change                         Max.-Flux-Residual
  Residual-Control   Outer-Iter.   Inner-Iter.     Column Row Layer    Maximum-Head-Change  Column Row Layer    Maximum-Flux-Residual          L2-NORM 
          0                 1           2             4    7     1       0.2308806857E+01       4    6    1         0.1220651136E+03      0.2775764472E+03
          0                 2           2             5    8     1      -0.7301741286E+00       5    8    1        -0.4040895052E+02      0.8791600205E+02
          0                 3           2             5    8     1      -0.4421733608E+00       5    8    1        -0.2444350816E+02      0.5140680674E+02
          0                 4           2             5    8     1      -0.2679316527E+00       5    8    1        -0.1480417179E+02      0.2982837967E+02
          0                 5           2             5    8     1      -0.1624155853E+00       5    8    1        -0.8970756070E+01      0.1723191225E+02
          0                 6           2             5    8     1      -0.9848027106E-01       5    8    1        -0.5438048234E+01      0.1040665124E+02
          0                 7           2             5    8     1      -0.5972604211E-01       5    8    1        -0.3297381396E+01      0.6328374403E+01
          0                 8           2             5    8     1      -0.3622922345E-01       5    8    1        -0.1999799157E+01      0.3851841225E+01
          0                 9           2             4    8     1      -0.2060247086E-01       4    8    1        -0.1133298305E+01      0.2225643390E+01
          0                10           2             4    8     1      -0.1245293885E-01       4    8    1        -0.6900750647E+00      0.1242984221E+01
                                                   Max.-Head-Change                         Max.-Flux-Residual
  Residual-Control   Outer-Iter.   Inner-Iter.     Column Row Layer    Maximum-Head-Change  Column Row Layer    Maximum-Flux-Residual          L2-NORM 
          0                11           2             4    8     1      -0.7499158077E-02       4    8    1        -0.4167463433E+00      0.7407182180E+00
          0                12           2             4    8     1      -0.4509449977E-02       4    8    1        -0.2508774025E+00      0.4460332344E+00
          0                13           2             4    8     1      -0.2710112027E-02       4    8    1        -0.1508375683E+00      0.2689748873E+00
          0                14           2             4    8     1      -0.1628369518E-02       4    8    1        -0.9064511754E-01      0.1622368073E+00
          0                15           2             4    8     1      -0.9783163442E-03       4    8    1        -0.5446215300E-01      0.9786422427E-01
          0                16           2             4    8     1      -0.5877454523E-03       4    8    1        -0.3271983438E-01      0.5903863903E-01
          0                17           2             4    8     1      -0.3530952935E-03       4    8    1        -0.1965681212E-01      0.3561966012E-01
          0                18           2             4    8     1      -0.2121245124E-03       4    8    1        -0.1180887646E-01      0.2149242355E-01
          0                19           2             4    8     1      -0.1274346449E-03       4    8    1        -0.7094155037E-02      0.1296949488E-01
          0                20           1             4    8     1      -0.7655649421E-04       4    8    1        -0.4261776138E-02      0.7827122015E-02

    ------------------------------------------------
       NWT REQUIRED           20 OUTER ITERATIONS 
       AND A TOTAL OF         39 INNER ITERATIONS.
    ------------------------------------------------

 NO OUTPUT CONTROL FOR STRESS PERIOD   20   TIME STEP   14
 
 SOLVING FOR HEAD 
                                                   Max.-Head-Change                         Max.-Flux-Residual
  Residual-Control   Outer-Iter.   Inner-Iter.     Column Row Layer    Maximum-Head-Change  Column Row Layer    Maximum-Flux-Residual          L2-NORM 
          0                 1           2             4    7     1       0.2103287858E+01       4    6    1         0.1102437432E+03      0.2673854334E+03
          0                 2           2             4    6     1      -0.7931254991E+00       4    6    1        -0.4333199752E+02      0.9196445911E+02
          0                 3           2             4    6     1      -0.4869246626E+00       4    6    1        -0.2658997979E+02      0.5667173968E+02
          0                 4           2             4    7     1      -0.2960225845E+00       4    7    1        -0.1600593203E+02      0.3327352277E+02
          0                 5           2             4    7     1      -0.1826314497E+00       4    7    1        -0.9935632716E+01      0.1928384272E+02
          0                 6           2             4    8     1      -0.9325087200E-01       4    8    1        -0.5062885739E+01      0.1117658283E+02
          0                 7           2             4    8     1      -0.5721065943E-01       4    8    1        -0.3128237153E+01      0.6226258789E+01
          0                 8           2             4    8     1      -0.3497392198E-01       4    8    1        -0.1917640034E+01      0.3730412840E+01
          0                 9           2             4    8     1      -0.2134975210E-01       4    8    1        -0.1171897931E+01      0.2262093342E+01
          0                10           2             4    8     1      -0.1302533266E-01       4    8    1        -0.7152806470E+00      0.1374177888E+01
                                                   Max.-Head-Change                         Max.-Flux-Residual
  Residual-Control   Outer-Iter.   Inner-Iter.     Column Row Layer    Maximum-Head-Change  Column Row Layer    Maximum-Flux-Residual          L2-NORM 
          0                11           2             4    8     1      -0.7944674734E-02       4    8    1        -0.4363582828E+00      0.8350343466E+00
          0                12           2             4    8     1      -0.4845195891E-02       4    8    1        -0.2661424367E+00      0.5074748139E+00
          0                13           2             4    8     1      -0.2954723384E-02       4    8    1        -0.1623072933E+00      0.3084378483E+00
          0                14           2             4    8     1      -0.1801778758E-02       4    8    1        -0.9897698724E-01      0.1874838911E+00
          0                15           2             4    8     1      -0.1098673912E-02       4    8    1        -0.6035460030E-01      0.1139730631E+00
          0                16           2             4    8     1      -0.6699160207E-03       4    8    1        -0.3680184342E-01      0.6929156166E-01
          0                17           2             4    8     1      -0.4084668147E-03       4    8    1        -0.2243949662E-01      0.4213043153E-01
          0                18           2             4    8     1      -0.2490453251E-03       4    8    1        -0.1368174764E-01      0.2561807071E-01
          0                19           2             4    8     1      -0.1518397278E-03       4    8    1        -0.8341713605E-02      0.1557863857E-01
          0                20           1             4    8     1      -0.9257160391E-04       4    8    1        -0.5085742920E-02      0.9474208049E-02

    ------------------------------------------------
       NWT REQUIRED           20 OUTER ITERATIONS 
       AND A TOTAL OF         39 INNER ITERATIONS.
    ------------------------------------------------

 NO OUTPUT CONTROL FOR STRESS PERIOD   20   TIME STEP   15
 
 SOLVING FOR HEAD 
                                                   Max.-Head-Change                         Max.-Flux-Residual
  Residual-Control   Outer-Iter.   Inner-Iter.     Column Row Layer    Maximum-Head-Change  Column Row Layer    Maximum-Flux-Residual          L2-NORM 
          0                 1           2             4    7     1       0.2109246515E+01       4    7    1         0.1101564638E+03      0.2660472547E+03
          0                 2           2             4    6     1      -0.8008744877E+00       4    6    1        -0.4383061963E+02      0.9025303467E+02
          0                 3           2             4    6     1      -0.4907773100E+00       4    6    1        -0.2684469506E+02      0.5558310525E+02
          0                 4           2             4    6     1      -0.3008321235E+00       4    6    1        -0.1645123596E+02      0.3424508147E+02
          0                 5           2             4    6     1      -0.1660525461E+00       4    6    1        -0.9053484868E+01      0.2063240368E+02
          0                 6           2             4    7     1      -0.1020622742E+00       4    7    1        -0.5531006533E+01      0.1165548843E+02
          0                 7           2             4    7     1      -0.6299450093E-01       4    7    1        -0.3424582169E+01      0.7050793453E+01
          0                 8           2             4    7     1      -0.3882196907E-01       4    7    1        -0.2112917077E+01      0.4313898611E+01
          0                 9           2             4    7     1      -0.2391214308E-01       4    7    1        -0.1301946610E+01      0.2643980168E+01
          0                10           2             4    7     1      -0.1472609236E-01       4    7    1        -0.8018766855E+00      0.1621073856E+01
                                                   Max.-Head-Change                         Max.-Flux-Residual
  Residual-Control   Outer-Iter.   Inner-Iter.     Column Row Layer    Maximum-Head-Change  Column Row Layer    Maximum-Flux-Residual          L2-NORM 
          0                11           2             4    7     1      -0.9068675585E-02       4    7    1        -0.4938150239E+00      0.9940922821E+00
          0                12           2             4    7     1      -0.5584794890E-02       4    7    1        -0.3040979550E+00      0.6097055007E+00
          0                13           2             4    7     1      -0.3439396511E-02       4    7    1        -0.1872713712E+00      0.3740063311E+00
          0                14           2             4    7     1      -0.2118205132E-02       4    7    1        -0.1153297336E+00      0.2294555584E+00
          0                15           2             4    7     1      -0.1304553061E-02       4    7    1        -0.7102672696E-01      0.1407907168E+00
          0                16           2             4    7     1      -0.8034524448E-03       4    7    1        -0.4374314264E-01      0.8639734719E-01
          0                17           2             4    7     1      -0.4948346259E-03       4    7    1        -0.2694030579E-01      0.5302408863E-01
          0                18           2             4    7     1      -0.3047603554E-03       4    7    1        -0.1659190339E-01      0.3254530051E-01
          0                19           2             4    7     1      -0.1876949726E-03       4    7    1        -0.1021852196E-01      0.1997753313E-01
          0                20           2             4    7     1      -0.1155952971E-03       4    7    1        -0.6293256887E-02      0.1226395419E-01
          0                21           1             4    7     1      -0.7118998581E-04       4    7    1        -0.3875751743E-02      0.7529240596E-02

    ------------------------------------------------
       NWT REQUIRED           21 OUTER ITERATIONS 
       AND A TOTAL OF         41 INNER ITERATIONS.
    ------------------------------------------------

 NO OUTPUT CONTROL FOR STRESS PERIOD   20   TIME STEP   16
 
 SOLVING FOR HEAD 
                                                   Max.-Head-Change                         Max.-Flux-Residual
  Residual-Control   Outer-Iter.   Inner-Iter.     Column Row Layer    Maximum-Head-Change  Column Row Layer    Maximum-Flux-Residual          L2-NORM 
          0                 1           2             4    7     1       0.2107679773E+01       4    7    1         0.1100881455E+03      0.2648816046E+03
          0                 2           2             4    6     1      -0.7236508742E+00       4    6    1        -0.3954448938E+02      0.8743115275E+02
          0                 3           2             4    6     1      -0.4441850513E+00       4    6    1        -0.2426027527E+02      0.5382146128E+02
          0                 4           2             4    6     1      -0.2727089071E+00       4    6    1        -0.1489189670E+02      0.3314463731E+02
          0                 5           2             4    6     1      -0.1674676738E+00       4    6    1        -0.9142922146E+01      0.2041826865E+02
          0                 6           2             4    6     1      -0.1028621487E+00       4    6    1        -0.5614610666E+01      0.1258109831E+02
          0                 7           2             4    6     1      -0.6319316146E-01       4    6    1        -0.3448631315E+01      0.7753542225E+01
          0                 8           2             4    6     1      -0.3883037642E-01       4    6    1        -0.2118672208E+01      0.4779226312E+01
          0                 9           2             4    7     1      -0.2300980975E-01       4    7    1        -0.1243181385E+01      0.2724719042E+01
          0                10           2             4    7     1      -0.1423277141E-01       4    7    1        -0.7722928711E+00      0.1634120595E+01
                                                   Max.-Head-Change                         Max.-Flux-Residual
  Residual-Control   Outer-Iter.   Inner-Iter.     Column Row Layer    Maximum-Head-Change  Column Row Layer    Maximum-Flux-Residual          L2-NORM 
          0                11           2             4    7     1      -0.8784908244E-02       4    7    1        -0.4774630473E+00      0.9986347378E+00
          0                12           2             4    7     1      -0.5417892965E-02       4    7    1        -0.2946455296E+00      0.6120234119E+00
          0                13           2             4    7     1      -0.3340319493E-02       4    7    1        -0.1817003009E+00      0.3752687749E+00
          0                14           2             4    7     1      -0.2059169965E-02       4    7    1        -0.1120198553E+00      0.2301413080E+00
          0                15           2             4    7     1      -0.1269324030E-02       4    7    1        -0.6905388859E-01      0.1411591774E+00
          0                16           2             4    7     1      -0.7824170019E-03       4    7    1        -0.4256571535E-01      0.8659301441E-01
          0                17           2             4    7     1      -0.4822711669E-03       4    7    1        -0.2623722985E-01      0.5312664019E-01
          0                18           2             4    7     1      -0.2972559886E-03       4    7    1        -0.1617198684E-01      0.3259819462E-01
          0                19           2             4    7     1      -0.1832122169E-03       4    7    1        -0.9967699904E-02      0.2000425162E-01
          0                20           2             4    7     1      -0.1129173853E-03       4    7    1        -0.6143428966E-02      0.1227706847E-01
          0                21           1             4    7     1      -0.6959017740E-04       4    7    1        -0.3786248333E-02      0.7535411731E-02

    ------------------------------------------------
       NWT REQUIRED           21 OUTER ITERATIONS 
       AND A TOTAL OF         41 INNER ITERATIONS.
    ------------------------------------------------

 NO OUTPUT CONTROL FOR STRESS PERIOD   20   TIME STEP   17
 
 SOLVING FOR HEAD 
                                                   Max.-Head-Change                         Max.-Flux-Residual
  Residual-Control   Outer-Iter.   Inner-Iter.     Column Row Layer    Maximum-Head-Change  Column Row Layer    Maximum-Flux-Residual          L2-NORM 
          0                 1           2             4    7     1       0.2097585225E+01       4    7    1         0.1095516135E+03      0.2637852464E+03
          0                 2           2             5    8     1      -0.6718680998E+00       5    8    1        -0.3706890580E+02      0.8606987713E+02
          0                 3           2             5    8     1      -0.4081619201E+00       5    8    1        -0.2249945602E+02      0.5298907192E+02
          0                 4           2             5    8     1      -0.2481006742E+00       5    8    1        -0.1366984098E+02      0.3263416692E+02
          0                 5           2             4    8     1      -0.1527113143E+00       5    8    1        -0.8309461561E+01      0.2010503395E+02
          0                 6           2             4    8     1      -0.9435915460E-01       4    8    1        -0.5123114583E+01      0.1238881819E+02
          0                 7           2             4    7     1      -0.5901951576E-01       4    7    1        -0.3167076756E+01      0.7635454853E+01
          0                 8           2             4    7     1      -0.3692452046E-01       4    7    1        -0.1982489932E+01      0.4706672064E+01
          0                 9           2             4    7     1      -0.2308766089E-01       4    7    1        -0.1240215302E+01      0.2901755891E+01
          0                10           2             4    7     1      -0.1442791684E-01       4    7    1        -0.7754081907E+00      0.1789246763E+01
                                                   Max.-Head-Change                         Max.-Flux-Residual
  Residual-Control   Outer-Iter.   Inner-Iter.     Column Row Layer    Maximum-Head-Change  Column Row Layer    Maximum-Flux-Residual          L2-NORM 
          0                11           2             4    7     1      -0.9011518346E-02       4    7    1        -0.4845332475E+00      0.1103410174E+01
          0                12           2             4    7     1      -0.5625670304E-02       4    7    1        -0.3026137282E+00      0.6805443880E+00
          0                13           2             4    7     1      -0.3510291739E-02       4    7    1        -0.1889020898E+00      0.4197825439E+00
          0                14           2             4    7     1      -0.2189348180E-02       4    7    1        -0.1178632987E+00      0.2589624458E+00
          0                15           2             4    7     1      -0.1364893081E-02       4    7    1        -0.7350622322E-01      0.1597680937E+00
          0                16           2             4    7     1      -0.8505572730E-03       4    7    1        -0.4582291843E-01      0.9857818329E-01
          0                17           2             4    7     1      -0.5298318809E-03       4    7    1        -0.2855376666E-01      0.6082833909E-01
          0                18           2             4    7     1      -0.3299211852E-03       4    7    1        -0.1778584499E-01      0.3753726595E-01
          0                19           2             4    7     1      -0.2053654954E-03       4    7    1        -0.1107449644E-01      0.2316584832E-01
          0                20           2             4    7     1      -0.1277900577E-03       4    7    1        -0.6893176251E-02      0.1429750434E-01
          0                21           1             4    7     1      -0.7949242654E-04       4    7    1        -0.4289116148E-02      0.8824629413E-02

    ------------------------------------------------
       NWT REQUIRED           21 OUTER ITERATIONS 
       AND A TOTAL OF         41 INNER ITERATIONS.
    ------------------------------------------------

 NO OUTPUT CONTROL FOR STRESS PERIOD   20   TIME STEP   18
 
 SOLVING FOR HEAD 
                                                   Max.-Head-Change                         Max.-Flux-Residual
  Residual-Control   Outer-Iter.   Inner-Iter.     Column Row Layer    Maximum-Head-Change  Column Row Layer    Maximum-Flux-Residual          L2-NORM 
          0                 1           2             4    7     1       0.2090165995E+01       4    7    1         0.1091658518E+03      0.2626868452E+03
          0                 2           2             4    8     1      -0.7610737920E+00       4    8    1        -0.4148013131E+02      0.8898789079E+02
          0                 3           2             5    8     1      -0.4111996921E+00       5    8    1        -0.2270388622E+02      0.5221517247E+02
          0                 4           2             5    8     1      -0.2495131088E+00       5    8    1        -0.1376902452E+02      0.3215086872E+02
          0                 5           2             5    7     1      -0.1528867566E+00       5    8    1        -0.8355284633E+01      0.1980374783E+02
          0                 6           2             5    7     1      -0.9456161941E-01       5    7    1        -0.5129671827E+01      0.1220119552E+02
          0                 7           2             4    7     1      -0.5906294674E-01       4    7    1        -0.3173496903E+01      0.7518724975E+01
          0                 8           2             4    7     1      -0.3690273398E-01       4    7    1        -0.1983662955E+01      0.4634106169E+01
          0                 9           2             4    7     1      -0.2304598650E-01       4    7    1        -0.1239319632E+01      0.2856675680E+01
          0                10           2             4    7     1      -0.1438579045E-01       4    7    1        -0.7739145165E+00      0.1761257984E+01
                                                   Max.-Head-Change                         Max.-Flux-Residual
  Residual-Control   Outer-Iter.   Inner-Iter.     Column Row Layer    Maximum-Head-Change  Column Row Layer    Maximum-Flux-Residual          L2-NORM 
          0                11           2             4    7     1      -0.8975979990E-02       4    7    1        -0.4830645578E+00      0.1086041701E+01
          0                12           2             4    7     1      -0.5598188336E-02       4    7    1        -0.3013893434E+00      0.6697710935E+00
          0                13           2             4    7     1      -0.3490101775E-02       4    7    1        -0.1879614886E+00      0.4131026494E+00
          0                14           2             4    7     1      -0.2175007813E-02       4    7    1        -0.1171751632E+00      0.2548220109E+00
          0                15           2             4    7     1      -0.1354947902E-02       4    7    1        -0.7301887212E-01      0.1572024549E+00
          0                16           2             4    7     1      -0.8437815848E-03       4    7    1        -0.4548565039E-01      0.9698878235E-01
          0                17           2             4    7     1      -0.5252783662E-03       4    7    1        -0.2832435505E-01      0.5984393647E-01
          0                18           2             4    7     1      -0.3268941174E-03       4    7    1        -0.1763186735E-01      0.3692769478E-01
          0                19           2             4    7     1      -0.2033708269E-03       4    7    1        -0.1097224045E-01      0.2278845180E-01
          0                20           2             4    7     1      -0.1264852128E-03       4    7    1        -0.6825851937E-02      0.1406388905E-01
          0                21           1             4    7     1      -0.7864403214E-04       4    7    1        -0.4245105835E-02      0.8680038348E-02

    ------------------------------------------------
       NWT REQUIRED           21 OUTER ITERATIONS 
       AND A TOTAL OF         41 INNER ITERATIONS.
    ------------------------------------------------

 NO OUTPUT CONTROL FOR STRESS PERIOD   20   TIME STEP   19
 
 SOLVING FOR HEAD 
                                                   Max.-Head-Change                         Max.-Flux-Residual
  Residual-Control   Outer-Iter.   Inner-Iter.     Column Row Layer    Maximum-Head-Change  Column Row Layer    Maximum-Flux-Residual          L2-NORM 
          0                 1           2             4    7     1       0.2083386570E+01       4    7    1         0.1088153450E+03      0.2616435524E+03
          0                 2           2             4    8     1      -0.8339934539E+00       4    8    1        -0.4553968247E+02      0.9143952987E+02
          0                 3           2             5    8     1      -0.4138164158E+00       5    8    1        -0.2287115826E+02      0.5206174892E+02
          0                 4           2             5    8     1      -0.2508339111E+00       5    8    1        -0.1385507002E+02      0.3205044637E+02
          0                 5           2             5    7     1      -0.1538836410E+00       5    8    1        -0.8398600389E+01      0.1973865265E+02
          0                 6           2             5    7     1      -0.9517181179E-01       5    7    1        -0.5163096107E+01      0.1215926698E+02
          0                 7           2             4    7     1      -0.5930058257E-01       5    7    1        -0.3193025905E+01      0.7491863575E+01
          0                 8           2             4    7     1      -0.3702704814E-01       4    7    1        -0.1991503312E+01      0.4616973574E+01
          0                 9           2             4    7     1      -0.2310972212E-01       4    7    1        -0.1243413492E+01      0.2845788742E+01
          0                10           2             4    7     1      -0.1441757485E-01       4    7    1        -0.7760081817E+00      0.1754361502E+01
                                                   Max.-Head-Change                         Max.-Flux-Residual
  Residual-Control   Outer-Iter.   Inner-Iter.     Column Row Layer    Maximum-Head-Change  Column Row Layer    Maximum-Flux-Residual          L2-NORM 
          0                11           2             4    7     1      -0.8991203684E-02       4    7    1        -0.4841049751E+00      0.1081684665E+01
          0                12           2             4    7     1      -0.5605027461E-02       4    7    1        -0.3018850212E+00      0.6670247076E+00
          0                13           2             4    7     1      -0.3492834146E-02       4    7    1        -0.1881821808E+00      0.4113749239E+00
          0                14           2             4    7     1      -0.2175827036E-02       4    7    1        -0.1172617437E+00      0.2537369760E+00
          0                15           2             4    7     1      -0.1354948147E-02       4    7    1        -0.7304339901E-01      0.1565220570E+00
          0                16           2             4    7     1      -0.8434870771E-03       4    7    1        -0.4548393971E-01      0.9656268184E-01
          0                17           2             4    7     1      -0.5249247167E-03       4    7    1        -0.2831347548E-01      0.5957739891E-01
          0                18           2             4    7     1      -0.3265755379E-03       4    7    1        -0.1761942203E-01      0.3676113906E-01
          0                19           2             4    7     1      -0.2031156341E-03       4    7    1        -0.1096121491E-01      0.2268446826E-01
          0                20           2             4    7     1      -0.1262934979E-03       4    7    1        -0.6817094341E-02      0.1399902322E-01
          0                21           1             4    7     1      -0.7850571361E-04       4    7    1        -0.4238560027E-02      0.8639604023E-02

    ------------------------------------------------
       NWT REQUIRED           21 OUTER ITERATIONS 
       AND A TOTAL OF         41 INNER ITERATIONS.
    ------------------------------------------------

 NO OUTPUT CONTROL FOR STRESS PERIOD   20   TIME STEP   20
 
 SOLVING FOR HEAD 
                                                   Max.-Head-Change                         Max.-Flux-Residual
  Residual-Control   Outer-Iter.   Inner-Iter.     Column Row Layer    Maximum-Head-Change  Column Row Layer    Maximum-Flux-Residual          L2-NORM 
          0                 1           2             4    7     1       0.2076589327E+01       4    7    1         0.1084626839E+03      0.2606724483E+03
          0                 2           2             4    8     1      -0.8374922602E+00       4    8    1        -0.4572875930E+02      0.9239485568E+02
          0                 3           2             5    8     1      -0.4162935733E+00       5    8    1        -0.2298799380E+02      0.5271689410E+02
          0                 4           2             5    8     1      -0.2522238895E+00       5    8    1        -0.1393939157E+02      0.3199127623E+02
          0                 5           2             5    7     1      -0.1547656059E+00       5    8    1        -0.8444617333E+01      0.1970133793E+02
          0                 6           2             5    7     1      -0.9569162368E-01       5    7    1        -0.5192541764E+01      0.1213578835E+02
          0                 7           2             4    7     1      -0.5962605163E-01       5    7    1        -0.3210378638E+01      0.7477122773E+01
          0                 8           2             4    7     1      -0.3721429262E-01       4    7    1        -0.2002342070E+01      0.4607735362E+01
          0                 9           2             4    7     1      -0.2321721495E-01       4    7    1        -0.1249647658E+01      0.2840007947E+01
          0                10           2             4    7     1      -0.1447913713E-01       4    7    1        -0.7795861688E+00      0.1750748917E+01
                                                   Max.-Head-Change                         Max.-Flux-Residual
  Residual-Control   Outer-Iter.   Inner-Iter.     Column Row Layer    Maximum-Head-Change  Column Row Layer    Maximum-Flux-Residual          L2-NORM 
          0                11           2             4    7     1      -0.9026367120E-02       4    7    1        -0.4861535523E+00      0.1079429590E+01
          0                12           2             4    7     1      -0.5625052112E-02       4    7    1        -0.3030547729E+00      0.6656183860E+00
          0                13           2             4    7     1      -0.3504199026E-02       4    7    1        -0.1888480911E+00      0.4104986357E+00
          0                14           2             4    7     1      -0.2182252241E-02       4    7    1        -0.1176395287E+00      0.2531913479E+00
          0                15           2             4    7     1      -0.1358564611E-02       4    7    1        -0.7325688650E-01      0.1561825291E+00
          0                16           2             4    7     1      -0.8455122112E-03       4    7    1        -0.4560404073E-01      0.9635151859E-01
          0                17           2             4    7     1      -0.5260519629E-03       4    7    1        -0.2838068921E-01      0.5944613197E-01
          0                18           2             4    7     1      -0.3271985573E-03       4    7    1        -0.1765680899E-01      0.3667957251E-01
          0                19           2             4    7     1      -0.2034570507E-03       4    7    1        -0.1098186127E-01      0.2263380300E-01
          0                20           2             4    7     1      -0.1264786589E-03       4    7    1        -0.6828397304E-02      0.1396756251E-01
          0                21           1             4    7     1      -0.7860483715E-04       4    7    1        -0.4244682438E-02      0.8620074001E-02

    ------------------------------------------------
       NWT REQUIRED           21 OUTER ITERATIONS 
       AND A TOTAL OF         41 INNER ITERATIONS.
    ------------------------------------------------

 NO OUTPUT CONTROL FOR STRESS PERIOD   20   TIME STEP   21
 
 SOLVING FOR HEAD 
                                                   Max.-Head-Change                         Max.-Flux-Residual
  Residual-Control   Outer-Iter.   Inner-Iter.     Column Row Layer    Maximum-Head-Change  Column Row Layer    Maximum-Flux-Residual          L2-NORM 
          0                 1           2             4    7     1       0.2069833018E+01       4    7    1         0.1081111495E+03      0.2597674129E+03
          0                 2           2             4    8     1      -0.8408256307E+00       4    8    1        -0.4590765457E+02      0.9624707491E+02
          0                 3           2             4    8     1      -0.4588126995E+00       4    8    1        -0.2497521692E+02      0.5406947344E+02
          0                 4           2             5    8     1      -0.2536760993E+00       5    8    1        -0.1406299315E+02      0.3077076897E+02
          0                 5           2             4    7     1      -0.1535478596E+00       5    8    1        -0.8490230015E+01      0.1893996368E+02
          0                 6           2             4    7     1      -0.9564237564E-01       4    7    1        -0.5155427565E+01      0.1166150017E+02
          0                 7           2             4    7     1      -0.5956026394E-01       4    7    1        -0.3211105174E+01      0.7182027119E+01
          0                 8           2             4    7     1      -0.3708185203E-01       4    7    1        -0.1999604153E+01      0.4424318990E+01
          0                 9           2             4    7     1      -0.2308151460E-01       4    7    1        -0.1244893157E+01      0.2726105374E+01
          0                10           2             4    7     1      -0.1436366804E-01       4    7    1        -0.7748510823E+00      0.1680067607E+01
                                                   Max.-Head-Change                         Max.-Flux-Residual
  Residual-Control   Outer-Iter.   Inner-Iter.     Column Row Layer    Maximum-Head-Change  Column Row Layer    Maximum-Flux-Residual          L2-NORM 
          0                11           2             4    7     1      -0.8936451790E-02       4    7    1        -0.4821727199E+00      0.1035596875E+01
          0                12           2             4    7     1      -0.5558587884E-02       4    7    1        -0.2999755191E+00      0.6384505528E+00
          0                13           2             4    7     1      -0.3456723505E-02       4    7    1        -0.1865815533E+00      0.3936676811E+00
          0                14           2             4    7     1      -0.2149151687E-02       4    7    1        -0.1160252560E+00      0.2427684408E+00
          0                15           2             4    7     1      -0.1335898344E-02       4    7    1        -0.7213379482E-01      0.1497301425E+00
          0                16           2             4    7     1      -0.8302052787E-03       4    7    1        -0.4483623244E-01      0.9235828520E-01
          0                17           2             4    7     1      -0.5158284087E-03       4    7    1        -0.2786283900E-01      0.5697543136E-01
          0                18           2             4    7     1      -0.3204311759E-03       4    7    1        -0.1731129285E-01      0.3515122416E-01
          0                19           2             4    7     1      -0.1990105693E-03       4    7    1        -0.1075334522E-01      0.2168855714E-01
          0                20           2             4    7     1      -0.1235752736E-03       4    7    1        -0.6678358980E-02      0.1338304318E-01
          0                21           1             4    7     1      -0.7671906619E-04       4    7    1        -0.4146772508E-02      0.8258668768E-02

    ------------------------------------------------
       NWT REQUIRED           21 OUTER ITERATIONS 
       AND A TOTAL OF         41 INNER ITERATIONS.
    ------------------------------------------------

 NO OUTPUT CONTROL FOR STRESS PERIOD   20   TIME STEP   22
 
 SOLVING FOR HEAD 
                                                   Max.-Head-Change                         Max.-Flux-Residual
  Residual-Control   Outer-Iter.   Inner-Iter.     Column Row Layer    Maximum-Head-Change  Column Row Layer    Maximum-Flux-Residual          L2-NORM 
          0                 1           2             4    7     1       0.2063164931E+01       4    7    1         0.1077633930E+03      0.2589229577E+03
          0                 2           2             5    6     1      -0.8576540106E+00       5    6    1        -0.4737918282E+02      0.1012749641E+03
          0                 3           2             4    8     1      -0.5185308510E+00       4    8    1        -0.2830559199E+02      0.5447327168E+02
          0                 4           2             5    8     1      -0.2552075984E+00       5    8    1        -0.1416321806E+02      0.3006404705E+02
          0                 5           2             5    8     1      -0.1535981059E+00       5    8    1        -0.8540424410E+01      0.1808467446E+02
          0                 6           2             4    7     1      -0.9431254616E-01       5    8    1        -0.5138867678E+01      0.1112126576E+02
          0                 7           2             4    7     1      -0.5856430019E-01       4    7    1        -0.3165477676E+01      0.6841828919E+01
          0                 8           2             4    7     1      -0.3636505285E-01       4    7    1        -0.1965602075E+01      0.4210636036E+01
          0                 9           2             4    7     1      -0.2257958369E-01       4    7    1        -0.1220503452E+01      0.2592179972E+01
          0                10           2             4    7     1      -0.1401915452E-01       4    7    1        -0.7578132983E+00      0.1596285729E+01
                                                   Max.-Head-Change                         Max.-Flux-Residual
  Residual-Control   Outer-Iter.   Inner-Iter.     Column Row Layer    Maximum-Head-Change  Column Row Layer    Maximum-Flux-Residual          L2-NORM 
          0                11           2             4    7     1      -0.8703553108E-02       4    7    1        -0.4704993739E+00      0.9832673250E+00
          0                12           2             4    7     1      -0.5403009406E-02       4    7    1        -0.2920950867E+00      0.6058104990E+00
          0                13           2             4    7     1      -0.3353787020E-02       4    7    1        -0.1813232135E+00      0.3733327042E+00
          0                14           2             4    7     1      -0.2081578196E-02       4    7    1        -0.1125493050E+00      0.2301124844E+00
          0                15           2             4    7     1      -0.1291828672E-02       4    7    1        -0.6985370081E-01      0.1418603392E+00
          0                16           2             4    7     1      -0.8016226711E-03       4    7    1        -0.4335016067E-01      0.8746837447E-01
          0                17           2             4    7     1      -0.4973777220E-03       4    7    1        -0.2689952951E-01      0.5393909867E-01
          0                18           2             4    7     1      -0.3085692908E-03       4    7    1        -0.1668974737E-01      0.3326694058E-01
          0                19           2             4    7     1      -0.1914115867E-03       4    7    1        -0.1035391886E-01      0.2051980186E-01
          0                20           1             4    7     1      -0.1187222990E-03       4    7    1        -0.6422569462E-02      0.1265842566E-01
          0                21           1             4    7     1      -0.7362827132E-04       4    7    1        -0.3983468264E-02      0.7809586545E-02

    ------------------------------------------------
       NWT REQUIRED           21 OUTER ITERATIONS 
       AND A TOTAL OF         40 INNER ITERATIONS.
    ------------------------------------------------

 NO OUTPUT CONTROL FOR STRESS PERIOD   20   TIME STEP   23
 
 SOLVING FOR HEAD 
                                                   Max.-Head-Change                         Max.-Flux-Residual
  Residual-Control   Outer-Iter.   Inner-Iter.     Column Row Layer    Maximum-Head-Change  Column Row Layer    Maximum-Flux-Residual          L2-NORM 
          0                 1           2             4    7     1       0.2056622698E+01       4    7    1         0.1074215340E+03      0.2581342019E+03
          0                 2           2             5    6     1      -0.8613633253E+00       5    6    1        -0.4755937327E+02      0.1050192944E+03
          0                 3           2             4    8     1      -0.5207992565E+00       4    8    1        -0.2846474263E+02      0.5360092960E+02
          0                 4           2             5    8     1      -0.2574337600E+00       5    8    1        -0.1422042682E+02      0.3123363395E+02
          0                 5           2             5    8     1      -0.1547949519E+00       5    8    1        -0.8619527007E+01      0.1755990954E+02
          0                 6           2             4    6     1      -0.9383812634E-01       5    8    1        -0.5178035631E+01      0.1059245301E+02
          0                 7           2             4    6     1      -0.5757611021E-01       4    6    1        -0.3145701829E+01      0.6492463880E+01
          0                 8           2             4    6     1      -0.3533116313E-01       4    6    1        -0.1930097022E+01      0.3981902424E+01
          0                 9           2             4    6     1      -0.2168339410E-01       4    6    1        -0.1184386931E+01      0.2443526808E+01
          0                10           2             4    6     1      -0.1330917583E-01       4    6    1        -0.7268787591E+00      0.1500266073E+01
                                                   Max.-Head-Change                         Max.-Flux-Residual
  Residual-Control   Outer-Iter.   Inner-Iter.     Column Row Layer    Maximum-Head-Change  Column Row Layer    Maximum-Flux-Residual          L2-NORM 
          0                11           2             4    6     1      -0.8170154244E-02       4    6    1        -0.4461542707E+00      0.9215630919E+00
          0                12           2             4    6     1      -0.5016085620E-02       4    6    1        -0.2738819527E+00      0.5663304872E+00
          0                13           2             4    6     1      -0.3080033278E-02       4    6    1        -0.1681502144E+00      0.3481663699E+00
          0                14           2             4    6     1      -0.1891479589E-02       4    6    1        -0.1032493311E+00      0.2141218458E+00
          0                15           2             4    6     1      -0.1161725492E-02       4    6    1        -0.6340636484E-01      0.1317282550E+00
          0                16           2             4    6     1      -0.7136095646E-03       4    6    1        -0.3894341735E-01      0.8106406432E-01
          0                17           2             4    7     1      -0.4405287260E-03       4    6    1        -0.2392161592E-01      0.4989971030E-01
          0                18           2             4    7     1      -0.2733879575E-03       4    7    1        -0.1478260512E-01      0.3072398946E-01
          0                19           2             4    7     1      -0.1696449040E-03       4    7    1        -0.9173722972E-02      0.1892159498E-01
          0                20           1             4    7     1      -0.1052583335E-03       4    7    1        -0.5692411728E-02      0.1165547213E-01
          0                21           1             4    7     1      -0.6530174451E-04       4    7    1        -0.3531839978E-02      0.7181020747E-02

    ------------------------------------------------
       NWT REQUIRED           21 OUTER ITERATIONS 
       AND A TOTAL OF         40 INNER ITERATIONS.
    ------------------------------------------------

 NO OUTPUT CONTROL FOR STRESS PERIOD   20   TIME STEP   24
 
 SOLVING FOR HEAD 
                                                   Max.-Head-Change                         Max.-Flux-Residual
  Residual-Control   Outer-Iter.   Inner-Iter.     Column Row Layer    Maximum-Head-Change  Column Row Layer    Maximum-Flux-Residual          L2-NORM 
          0                 1           2             4    7     1       0.2050235895E+01       4    7    1         0.1070872489E+03      0.2573967274E+03
          0                 2           2             5    6     1      -0.8644225889E+00       5    6    1        -0.4772499227E+02      0.1061526007E+03
          0                 3           2             4    8     1      -0.5226532614E+00       4    8    1        -0.2857296827E+02      0.5493854401E+02
          0                 4           2             4    8     1      -0.3205424489E+00       4    8    1        -0.1752094517E+02      0.3253649257E+02
          0                 5           2             5    8     1      -0.1563899441E+00       5    8    1        -0.8688497935E+01      0.1772810347E+02
          0                 6           2             4    6     1      -0.9426233357E-01       5    8    1        -0.5232772274E+01      0.1045644889E+02
          0                 7           2             4    6     1      -0.5777798673E-01       4    6    1        -0.3159590139E+01      0.6358752578E+01
          0                 8           2             4    6     1      -0.3541934635E-01       4    6    1        -0.1936664471E+01      0.3886257930E+01
          0                 9           2             4    6     1      -0.2171547520E-01       4    6    1        -0.1187220539E+01      0.2377483279E+01
          0                10           2             4    6     1      -0.1331518420E-01       4    6    1        -0.7278784648E+00      0.1455054450E+01
                                                   Max.-Head-Change                         Max.-Flux-Residual
  Residual-Control   Outer-Iter.   Inner-Iter.     Column Row Layer    Maximum-Head-Change  Column Row Layer    Maximum-Flux-Residual          L2-NORM 
          0                11           2             4    6     1      -0.8165316523E-02       4    6    1        -0.4463086346E+00      0.8908012484E+00
          0                12           2             4    6     1      -0.5007788539E-02       4    6    1        -0.2736904494E+00      0.5455214904E+00
          0                13           2             4    6     1      -0.3071603473E-02       4    6    1        -0.1678537460E+00      0.3341670352E+00
          0                14           2             4    6     1      -0.1884211132E-02       4    6    1        -0.1029552656E+00      0.2047514396E+00
          0                15           2             4    6     1      -0.1155947706E-02       4    6    1        -0.6315550968E-01      0.1254853432E+00
          0                16           2             4    6     1      -0.7092345797E-03       4    6    1        -0.3874521094E-01      0.7692247476E-01
          0                17           2             4    6     1      -0.4351946317E-03       4    6    1        -0.2377211355E-01      0.4716282471E-01
          0                18           2             4    6     1      -0.2670655272E-03       4    6    1        -0.1458677739E-01      0.2892180525E-01
          0                19           2             4    6     1      -0.1639047464E-03       4    6    1        -0.8951410316E-02      0.1773876211E-01
          0                20           1             4    6     1      -0.1006012402E-03       4    6    1        -0.5493673411E-02      0.1088146614E-01
          0                21           1             4    6     1      -0.6175211235E-04       4    6    1        -0.3371880160E-02      0.6675933952E-02

    ------------------------------------------------
       NWT REQUIRED           21 OUTER ITERATIONS 
       AND A TOTAL OF         40 INNER ITERATIONS.
    ------------------------------------------------

 NO OUTPUT CONTROL FOR STRESS PERIOD   20   TIME STEP   25
 
 SOLVING FOR HEAD 
                                                   Max.-Head-Change                         Max.-Flux-Residual
  Residual-Control   Outer-Iter.   Inner-Iter.     Column Row Layer    Maximum-Head-Change  Column Row Layer    Maximum-Flux-Residual          L2-NORM 
          0                 1           2             4    7     1       0.2043110232E+01       4    7    1         0.1067099053E+03      0.2567406939E+03
          0                 2           2             5    6     1      -0.8672327252E+00       5    6    1        -0.4787766694E+02      0.1057506784E+03
          0                 3           2             4    8     1      -0.5048014731E+00       4    8    1        -0.2750763037E+02      0.5985987363E+02
          0                 4           2             4    8     1      -0.3094819667E+00       4    8    1        -0.1692862042E+02      0.3065476571E+02
          0                 5           2             4    8     1      -0.1677659313E+00       4    8    1        -0.9152020430E+01      0.1818524144E+02
          0                 6           2             5    8     1      -0.9450833291E-01       5    8    1        -0.5273095049E+01      0.9920366002E+01
          0                 7           2             4    6     1      -0.5758064982E-01       5    8    1        -0.3160593103E+01      0.5937999416E+01
          0                 8           2             4    6     1      -0.3517099515E-01       4    6    1        -0.1929309069E+01      0.3614414054E+01
          0                 9           2             4    6     1      -0.2148827283E-01       4    6    1        -0.1178460408E+01      0.2206438466E+01
          0                10           2             4    6     1      -0.1313175989E-01       4    6    1        -0.7200064799E+00      0.1347981179E+01
                                                   Max.-Head-Change                         Max.-Flux-Residual
  Residual-Control   Outer-Iter.   Inner-Iter.     Column Row Layer    Maximum-Head-Change  Column Row Layer    Maximum-Flux-Residual          L2-NORM 
          0                11           2             4    6     1      -0.8026863359E-02       4    6    1        -0.4400095037E+00      0.8239140956E+00
          0                12           2             4    6     1      -0.4907583062E-02       4    6    1        -0.2689607846E+00      0.5038051285E+00
          0                13           2             4    6     1      -0.3001136512E-02       4    6    1        -0.1644426543E+00      0.3081866850E+00
          0                14           2             4    6     1      -0.1835682644E-02       4    6    1        -0.1005624978E+00      0.1885923684E+00
          0                15           2             4    6     1      -0.1123054003E-02       4    6    1        -0.6151076575E-01      0.1154466963E+00
          0                16           2             4    6     1      -0.6872144091E-03       4    6    1        -0.3763198649E-01      0.7069270639E-01
          0                17           2             4    6     1      -0.4206005250E-03       4    6    1        -0.2302774800E-01      0.4330046713E-01
          0                18           2             4    6     1      -0.2574723721E-03       4    6    1        -0.1409390890E-01      0.2652927053E-01
          0                19           2             4    6     1      -0.1576420407E-03       4    6    1        -0.8627688369E-02      0.1625786037E-01
          0                20           1             4    6     1      -0.9653646608E-04       4    6    1        -0.5282478716E-02      0.9965477715E-02

    ------------------------------------------------
       NWT REQUIRED           20 OUTER ITERATIONS 
       AND A TOTAL OF         39 INNER ITERATIONS.
    ------------------------------------------------

 NO OUTPUT CONTROL FOR STRESS PERIOD   20   TIME STEP   26
 
 SOLVING FOR HEAD 
                                                   Max.-Head-Change                         Max.-Flux-Residual
  Residual-Control   Outer-Iter.   Inner-Iter.     Column Row Layer    Maximum-Head-Change  Column Row Layer    Maximum-Flux-Residual          L2-NORM 
          0                 1           2             4    7     1       0.2036092202E+01       4    7    1         0.1063373326E+03      0.2561375067E+03
          0                 2           2             5    6     1      -0.8705910888E+00       5    6    1        -0.4801877153E+02      0.1061106626E+03
          0                 3           2             5    7     1      -0.5268153173E+00       5    7    1        -0.2865895993E+02      0.6379389334E+02
          0                 4           2             4    8     1      -0.2947442291E+00       4    8    1        -0.1611221483E+02      0.2932388011E+02
          0                 5           2             4    8     1      -0.1804933321E+00       4    8    1        -0.9880536620E+01      0.1746669898E+02
          0                 6           2             4    8     1      -0.9601426445E-01       5    8    1        -0.5282185555E+01      0.1027036381E+02
          0                 7           2             5    8     1      -0.5705205301E-01       5    8    1        -0.3188791896E+01      0.5567240200E+01
          0                 8           2             5    8     1      -0.3402681763E-01       5    8    1        -0.1907513129E+01      0.3320860315E+01
          0                 9           2             4    6     1      -0.2033211119E-01       5    8    1        -0.1137256243E+01      0.2016079442E+01
          0                10           2             4    6     1      -0.1238866937E-01       4    6    1        -0.6810562132E+00      0.1227828253E+01
                                                   Max.-Head-Change                         Max.-Flux-Residual
  Residual-Control   Outer-Iter.   Inner-Iter.     Column Row Layer    Maximum-Head-Change  Column Row Layer    Maximum-Flux-Residual          L2-NORM 
          0                11           2             4    6     1      -0.7551105496E-02       4    6    1        -0.4149864053E+00      0.7484728497E+00
          0                12           2             4    6     1      -0.4604010274E-02       4    6    1        -0.2529461329E+00      0.4565430513E+00
          0                13           2             4    6     1      -0.2808008703E-02       4    6    1        -0.1542274710E+00      0.2786300573E+00
          0                14           2             4    6     1      -0.1713143225E-02       4    6    1        -0.9406574844E-01      0.1701376338E+00
          0                15           2             4    6     1      -0.1045486874E-02       4    6    1        -0.5738970826E-01      0.1039405098E+00
          0                16           2             4    6     1      -0.6382190651E-03       4    6    1        -0.3502400982E-01      0.6352825548E-01
          0                17           2             4    6     1      -0.3897120029E-03       4    6    1        -0.2138078488E-01      0.3884476914E-01
          0                18           2             4    6     1      -0.2380329690E-03       4    6    1        -0.1305581199E-01      0.2376118987E-01
          0                19           2             4    6     1      -0.1454274010E-03       4    6    1        -0.7974493258E-02      0.1453988844E-01
          0                20           1             4    6     1      -0.8887255286E-04       4    6    1        -0.4872117322E-02      0.8900188497E-02

    ------------------------------------------------
       NWT REQUIRED           20 OUTER ITERATIONS 
       AND A TOTAL OF         39 INNER ITERATIONS.
    ------------------------------------------------

 NO OUTPUT CONTROL FOR STRESS PERIOD   20   TIME STEP   27
 
 SOLVING FOR HEAD 
                                                   Max.-Head-Change                         Max.-Flux-Residual
  Residual-Control   Outer-Iter.   Inner-Iter.     Column Row Layer    Maximum-Head-Change  Column Row Layer    Maximum-Flux-Residual          L2-NORM 
          0                 1           2             4    7     1       0.2029512857E+01       4    7    1         0.1059882864E+03      0.2555725410E+03
          0                 2           2             5    6     1      -0.8742775909E+00       5    6    1        -0.4814939627E+02      0.1073507040E+03
          0                 3           2             5    6     1      -0.5299863574E+00       5    6    1        -0.2928416915E+02      0.6346543089E+02
          0                 4           2             4    8     1      -0.2808180553E+00       4    8    1        -0.1526350027E+02      0.3229743324E+02
          0                 5           2             4    8     1      -0.1720972598E+00       4    8    1        -0.9419744982E+01      0.1629037822E+02
          0                 6           2             4    8     1      -0.1050870335E+00       4    8    1        -0.5768155714E+01      0.9685302405E+01
          0                 7           2             4    8     1      -0.6410434307E-01       4    8    1        -0.3520984971E+01      0.5875905797E+01
          0                 8           2             4    8     1      -0.3878470011E-01       4    8    1        -0.2129559832E+01      0.3566266041E+01
          0                 9           2             5    8     1      -0.2071010468E-01       5    8    1        -0.1159613203E+01      0.1818509903E+01
          0                10           2             5    8     1      -0.1232087179E-01       5    8    1        -0.6922644156E+00      0.1063573567E+01
                                                   Max.-Head-Change                         Max.-Flux-Residual
  Residual-Control   Outer-Iter.   Inner-Iter.     Column Row Layer    Maximum-Head-Change  Column Row Layer    Maximum-Flux-Residual          L2-NORM 
          0                11           2             5    8     1      -0.7318461489E-02       5    8    1        -0.4116681595E+00      0.6396555446E+00
          0                12           2             5    8     1      -0.4345503413E-02       5    8    1        -0.2444891213E+00      0.3866873501E+00
          0                13           2             5    8     1      -0.2580568310E-02       5    8    1        -0.1451648782E+00      0.2341080484E+00
          0                14           2             5    8     1      -0.1532968986E-02       5    8    1        -0.8620611598E-01      0.1418658957E+00
          0                15           2             4    6     1      -0.9122783728E-03       5    8    1        -0.5121125671E-01      0.8604119642E-01
          0                16           2             4    6     1      -0.5537464416E-03       4    6    1        -0.3054314520E-01      0.5222604595E-01
          0                17           2             4    6     1      -0.3362646316E-03       4    6    1        -0.1854003504E-01      0.3172534085E-01
          0                18           2             4    6     1      -0.2042841342E-03       4    6    1        -0.1125884064E-01      0.1928629942E-01
          0                19           2             4    6     1      -0.1241559913E-03       4    6    1        -0.6840055683E-02      0.1173273692E-01
          0                20           1             4    6     1      -0.7548777198E-04       4    6    1        -0.4157237363E-02      0.7142360148E-02

    ------------------------------------------------
       NWT REQUIRED           20 OUTER ITERATIONS 
       AND A TOTAL OF         39 INNER ITERATIONS.
    ------------------------------------------------

 NO OUTPUT CONTROL FOR STRESS PERIOD   20   TIME STEP   28
 
 SOLVING FOR HEAD 
                                                   Max.-Head-Change                         Max.-Flux-Residual
  Residual-Control   Outer-Iter.   Inner-Iter.     Column Row Layer    Maximum-Head-Change  Column Row Layer    Maximum-Flux-Residual          L2-NORM 
          0                 1           2             4    7     1       0.2023340295E+01       4    7    1         0.1056610199E+03      0.2550426933E+03
          0                 2           2             5    6     1      -0.8772114810E+00       5    6    1        -0.4827052176E+02      0.1078959704E+03
          0                 3           2             5    6     1      -0.5315401913E+00       5    6    1        -0.2938473636E+02      0.6280905204E+02
          0                 4           2             4    7     1      -0.3238670342E+00       4    7    1        -0.1750453512E+02      0.3580237068E+02
          0                 5           2             4    8     1      -0.1642223785E+00       4    8    1        -0.8940536187E+01      0.1691377949E+02
          0                 6           2             4    8     1      -0.1005830994E+00       4    8    1        -0.5507563721E+01      0.9309380594E+01
          0                 7           2             4    8     1      -0.6141588940E-01       4    8    1        -0.3371010871E+01      0.5537853066E+01
          0                 8           2             4    8     1      -0.3744883543E-01       4    8    1        -0.2057730356E+01      0.3339439867E+01
          0                 9           2             4    8     1      -0.2281881956E-01       4    8    1        -0.1254539327E+01      0.2017829237E+01
          0                10           2             4    8     1      -0.1389842722E-01       4    8    1        -0.7643704691E+00      0.1219610447E+01
                                                   Max.-Head-Change                         Max.-Flux-Residual
  Residual-Control   Outer-Iter.   Inner-Iter.     Column Row Layer    Maximum-Head-Change  Column Row Layer    Maximum-Flux-Residual          L2-NORM 
          0                11           2             4    8     1      -0.8462651821E-02       4    8    1        -0.4655347024E+00      0.7372126290E+00
          0                12           2             4    8     1      -0.5151556804E-02       4    8    1        -0.2834478855E+00      0.4456516785E+00
          0                13           2             4    8     1      -0.3135258594E-02       4    8    1        -0.1725391837E+00      0.2694212557E+00
          0                14           2             4    8     1      -0.1907735423E-02       4    8    1        -0.1050040956E+00      0.1628928240E+00
          0                15           2             4    8     1      -0.1160587566E-02       4    8    1        -0.6389036115E-01      0.9849282432E-01
          0                16           2             4    8     1      -0.7059222426E-03       4    8    1        -0.3886690481E-01      0.5955769778E-01
          0                17           2             4    8     1      -0.4292978583E-03       4    8    1        -0.2363982093E-01      0.3601636153E-01
          0                18           2             4    8     1      -0.2610278877E-03       4    8    1        -0.1437578913E-01      0.2178152913E-01
          0                19           2             4    8     1      -0.1586882007E-03       4    8    1        -0.8740693391E-02      0.1317351109E-01
          0                20           1             4    8     1      -0.9645728467E-04       4    8    1        -0.5313613344E-02      0.7967783660E-02

    ------------------------------------------------
       NWT REQUIRED           20 OUTER ITERATIONS 
       AND A TOTAL OF         39 INNER ITERATIONS.
    ------------------------------------------------

 NO OUTPUT CONTROL FOR STRESS PERIOD   20   TIME STEP   29
 
 SOLVING FOR HEAD 
                                                   Max.-Head-Change                         Max.-Flux-Residual
  Residual-Control   Outer-Iter.   Inner-Iter.     Column Row Layer    Maximum-Head-Change  Column Row Layer    Maximum-Flux-Residual          L2-NORM 
          0                 1           2             4    7     1       0.2023155353E+01       4    7    1         0.1056618399E+03      0.2545461222E+03
          0                 2           2             5    6     1      -0.8794026273E+00       5    6    1        -0.4839731656E+02      0.1069662974E+03
          0                 3           2             5    6     1      -0.5327831212E+00       5    6    1        -0.2945771469E+02      0.6177149824E+02
          0                 4           2             5    7     1      -0.3236028169E+00       5    7    1        -0.1765036174E+02      0.3674009772E+02
          0                 5           2             4    7     1      -0.1906889077E+00       4    7    1        -0.1034665833E+02      0.1924873465E+02
          0                 6           2             4    8     1      -0.9908921943E-01       4    8    1        -0.5402705564E+01      0.9697719746E+01
          0                 7           2             4    8     1      -0.6063650871E-01       4    8    1        -0.3322551958E+01      0.5458902742E+01
          0                 8           2             4    8     1      -0.3700697462E-01       4    8    1        -0.2032014085E+01      0.3258251538E+01
          0                 9           2             4    8     1      -0.2255836886E-01       4    8    1        -0.1239837429E+01      0.1963256746E+01
          0                10           2             4    8     1      -0.1374231100E-01       4    8    1        -0.7556728341E+00      0.1184725581E+01
                                                   Max.-Head-Change                         Max.-Flux-Residual
  Residual-Control   Outer-Iter.   Inner-Iter.     Column Row Layer    Maximum-Head-Change  Column Row Layer    Maximum-Flux-Residual          L2-NORM 
          0                11           2             4    8     1      -0.8368414362E-02       4    8    1        -0.4603133310E+00      0.7151491056E+00
          0                12           2             4    8     1      -0.5094501949E-02       4    8    1        -0.2802941101E+00      0.4317699434E+00
          0                13           2             4    8     1      -0.3100669629E-02       4    8    1        -0.1706292825E+00      0.2607241137E+00
          0                14           2             4    8     1      -0.1886752485E-02       4    8    1        -0.1038461122E+00      0.1574642935E+00
          0                15           2             4    8     1      -0.1147853764E-02       4    8    1        -0.6318785324E-01      0.9511573122E-01
          0                16           2             4    8     1      -0.6981925686E-03       4    8    1        -0.3844056850E-01      0.5746298392E-01
          0                17           2             4    8     1      -0.4246048489E-03       4    8    1        -0.2338102347E-01      0.3472045389E-01
          0                18           2             4    8     1      -0.2581780768E-03       4    8    1        -0.1421866146E-01      0.2098166041E-01
          0                19           2             4    8     1      -0.1569574018E-03       4    8    1        -0.8645278013E-02      0.1268082626E-01
          0                20           1             4    8     1      -0.9540595487E-04       4    8    1        -0.5255663890E-02      0.7664868368E-02

    ------------------------------------------------
       NWT REQUIRED           20 OUTER ITERATIONS 
       AND A TOTAL OF         39 INNER ITERATIONS.
    ------------------------------------------------

 NO OUTPUT CONTROL FOR STRESS PERIOD   20   TIME STEP   30



 STREAM LISTING     PERIOD     20   STEP       30

 LAYER ROW COL. STREAM  RCH.  FLOW INTO     FLOW TO   FLOW OUT OF   OVRLND.     DIRECT     STREAM       STREAM     STREAM     STREAM   STREAMBED  STREAMBED
                SEG.NO.  NO.  STRM. RCH.    AQUIFER    STRM. RCH.    RUNOFF     PRECIP       ET          HEAD       DEPTH      WIDTH   CONDCTNC.   GRADIENT

   1    1    1     1     1    3.2276E+01  2.7609E-01   3.2000E+01  0.000E+00  0.000E+00  0.000E+00  1.09432E+03  1.269E+00  1.437E+01  6.467E-02  1.423E+00
   1    2    2     1     2    3.2000E+01  4.2738E-01   3.1573E+01  0.000E+00  0.000E+00  0.000E+00  1.08932E+03  1.266E+00  1.431E+01  1.002E-01  1.422E+00
   1    3    3     1     3    3.1573E+01  3.6428E-01   3.1209E+01  0.000E+00  0.000E+00  0.000E+00  1.08368E+03  1.263E+00  1.424E+01  8.546E-02  1.421E+00
   1    3    4     1     4    3.1209E+01  3.3528E-01   3.0873E+01  0.000E+00  0.000E+00  0.000E+00  1.07867E+03  1.259E+00  1.418E+01  7.871E-02  1.420E+00
   1    4    5     2     1    2.8873E+01  3.3633E-01   2.8537E+01  0.000E+00  0.000E+00  0.000E+00  1.07325E+03  1.312E+00  1.200E+01  7.800E-02  1.437E+00
   1    5    6     2     2    2.8537E+01  2.5823E-01   2.8279E+01  0.000E+00  0.000E+00  0.000E+00  1.06781E+03  1.304E+00  1.200E+01  6.000E-02  1.435E+00
   1    6    6     2     3    2.8279E+01  2.5780E-01   2.8021E+01  0.000E+00  0.000E+00  0.000E+00  1.06309E+03  1.297E+00  1.200E+01  6.000E-02  1.432E+00
   1    7    6     2     4    2.8021E+01  2.5737E-01   2.7764E+01  0.000E+00  0.000E+00  0.000E+00  1.05836E+03  1.290E+00  1.200E+01  6.000E-02  1.430E+00
   1    8    6     2     5    2.7764E+01  2.5694E-01   2.7507E+01  0.000E+00  0.000E+00  0.000E+00  1.05364E+03  1.282E+00  1.200E+01  6.000E-02  1.427E+00
   1    3    5     3     1    2.0000E+00  2.8252E-01   1.7175E+00  0.000E+00  0.000E+00  0.000E+00  1.07555E+03  1.909E+00  9.636E+00  7.227E-02  1.955E+00
   1    3    6     3     2    1.7175E+00  2.4905E-01   1.4684E+00  0.000E+00  0.000E+00  0.000E+00  1.07264E+03  1.727E+00  8.909E+00  6.682E-02  1.864E+00
   1    3    7     3     3    1.4684E+00  1.9718E-01   1.2712E+00  0.000E+00  0.000E+00  0.000E+00  1.06987E+03  1.555E+00  8.218E+00  5.547E-02  1.777E+00
   1    4    8     3     4    1.2712E+00  2.2567E-01   1.0456E+00  0.000E+00  0.000E+00  0.000E+00  1.06682E+03  1.364E+00  7.455E+00  6.709E-02  1.682E+00
   1    5    8     3     5    1.0456E+00  1.5790E-01   8.8768E-01  0.000E+00  0.000E+00  0.000E+00  1.06362E+03  1.164E+00  6.655E+00  4.991E-02  1.582E+00
   1    6    8     3     6    8.8768E-01  5.5980E-02   8.3170E-01  0.000E+00  0.000E+00  0.000E+00  1.06158E+03  1.036E+00  6.145E+00  1.844E-02  1.518E+00
   1    5   10     4     1    1.0000E+01  9.0919E-02   9.9091E+00  0.000E+00  0.000E+00  0.000E+00  1.07836E+03  6.368E-01  1.000E+01  2.500E-02  1.212E+00
   1    5    9     4     2    9.9091E+00  1.8158E-01   9.7275E+00  0.000E+00  0.000E+00  0.000E+00  1.07154E+03  6.315E-01  1.000E+01  5.000E-02  1.211E+00
   1    6    8     4     3    9.7275E+00  1.2689E-01   9.6006E+00  0.000E+00  0.000E+00  0.000E+00  1.06381E+03  6.256E-01  1.000E+01  3.500E-02  1.209E+00
   1    6    8     5     1    1.0432E+01  2.2686E-01   1.0205E+01  0.000E+00  0.000E+00  0.000E+00  1.05868E+03  6.790E-01  1.542E+01  6.166E-02  1.226E+00
   1    7    7     5     2    1.0205E+01  2.7894E-01   9.9265E+00  0.000E+00  0.000E+00  0.000E+00  1.05417E+03  6.732E-01  1.519E+01  7.594E-02  1.224E+00
   1    8    7     5     3    9.9265E+00  1.9221E-01   9.7343E+00  0.000E+00  0.000E+00  0.000E+00  1.04992E+03  6.676E-01  1.497E+01  5.241E-02  1.223E+00
   1    8    6     5     4    9.7343E+00  1.3577E-01   9.5985E+00  0.000E+00  0.000E+00  0.000E+00  1.04691E+03  6.637E-01  1.482E+01  3.706E-02  1.221E+00
   1    9    6     6     1    9.5985E+00  2.2097E-01   9.3776E+00  0.000E+00  0.000E+00  0.000E+00  1.04341E+03  6.828E-01  1.200E+01  6.000E-02  1.228E+00
   1   10    7     6     2    9.3776E+00  2.2039E-01   9.1572E+00  0.000E+00  0.000E+00  0.000E+00  1.03885E+03  6.732E-01  1.200E+01  6.000E-02  1.224E+00
   1   11    7     6     3    9.1572E+00  2.1981E-01   8.9374E+00  0.000E+00  0.000E+00  0.000E+00  1.03430E+03  6.636E-01  1.200E+01  6.000E-02  1.221E+00
   1   12    7     6     4    8.9374E+00  2.1923E-01   8.7181E+00  0.000E+00  0.000E+00  0.000E+00  1.02974E+03  6.539E-01  1.200E+01  6.000E-02  1.218E+00
   1   13    7     6     5    8.7181E+00 -7.3442E-02   8.7916E+00  0.000E+00  0.000E+00  0.000E+00  1.02656E+03  6.506E-01  1.200E+01  2.400E-01 -1.020E-01
   1   14    9     7     1    1.5000E+02  1.3466E+00   1.4865E+02  0.000E+00  0.000E+00  0.000E+00  1.03987E+03  2.288E+00  5.529E+01  5.593E-01  8.026E-01
   1   13    8     7     2    1.4865E+02  1.8894E+00   1.4676E+02  0.000E+00  0.000E+00  0.000E+00  1.03478E+03  2.279E+00  5.526E+01  6.148E-01  1.024E+00
   1   13    7     7     3    1.4676E+02  1.5767E+00   1.4519E+02  0.000E+00  0.000E+00  0.000E+00  1.02969E+03  2.270E+00  5.521E+01  5.584E-01  9.412E-01
   1   13    6     8     1    1.5398E+02  9.3166E-01   1.5305E+02  0.000E+00  0.000E+00  0.000E+00  1.02472E+03  2.841E+00  4.120E+01  4.198E-01  7.397E-01
   1   13    5     8     2    1.5305E+02  2.0194E-01   1.5285E+02  0.000E+00  0.000E+00  0.000E+00  1.01846E+03  2.837E+00  4.114E+01  4.193E-01  1.606E-01
   1   13    4     8     3    1.5285E+02 -2.3201E+00   1.5517E+02  0.000E+00  0.000E+00  0.000E+00  1.01222E+03  2.845E+00  4.125E+01  4.203E+00 -1.840E-01
   1   13    3     8     4    1.5517E+02 -3.6141E+00   1.5878E+02  0.000E+00  0.000E+00  0.000E+00  1.00599E+03  2.865E+00  4.155E+01  4.234E+00 -2.846E-01
   1   13    2     8     5    1.5878E+02 -2.6214E+00   1.6140E+02  0.000E+00  0.000E+00  0.000E+00  9.99761E+02  2.886E+00  4.185E+01  4.265E+00 -2.049E-01
   1   13    1     8     6    1.6140E+02 -2.0487E+00   1.6345E+02  0.000E+00  0.000E+00  0.000E+00  9.94777E+02  2.902E+00  4.208E+01  2.573E+00 -2.654E-01
   1    8    6     9     1    2.7507E+01  0.0000E+00   2.7507E+01  0.000E+00  0.000E+00  0.000E+00  1.08291E+03  4.158E+00  4.000E+00  0.000E+00  2.386E+00
   1    8    5     9     2    2.7507E+01  0.0000E+00   2.7507E+01  0.000E+00  0.000E+00  0.000E+00  1.08241E+03  4.158E+00  4.000E+00  0.000E+00  2.386E+00





UNSATURATED ZONE PACKAGE VOLUMETRIC BUDGET FOR  TIME STEP    30 STRESS PERIOD   20
  ------------------------------------------------------------------------------



     CUMULATIVE VOLUMES      L**3       RATES FOR THIS TIME STEP      L**3/T
     ------------------                 ------------------------

           IN:                                      IN:
           ---                                      ---
        INFILTRATION =  5098957785.8840          INFILTRATION =         628.3548

          OUT:                                     OUT:
          ----                                     ----
              UZF ET =   694129153.6742                UZF ET =          60.8175
        UZF RECHARGE =  3311427745.6895          UZF RECHARGE =         603.4869

            IN - OUT =  1093400886.5204              IN - OUT =         -35.9496

          STORAGE:                                 STORAGE:
          --------                                 --------
      STORAGE CHANGE =  1094197467.3080        STORAGE CHANGE =         -35.9496

 PERCENT DISCREPANCY IS DIFFERENCE BETWEEN IN-OUT MINUS CHANGE IN STORAGE
 DIVIDED BY THE AVERAGE OF IN AND OUT TIMES 100

 PERCENT DISCREPANCY =          -0.00     PERCENT DISCREPANCY =           0.00






1
  VOLUMETRIC BUDGET FOR AGRICULTURAL FIELDS AT  END OF TIME STEP   30, STRESS PERIOD  20
  ------------------------------------------------------------------------------

     CUMULATIVE VOLUMES      L**3       RATES FOR THIS TIME STEP      L**3/T
     ------------------                 ------------------------

           IN:                                      IN:
           ---                                      ---
               AG WELLS  =  4529143296.0000                 AG WELLS  =         600.0000
      DIVERSION SEGMENTS =   527405536.0000        DIVERSION SEGMENTS =          27.5067
       IRRIGATION PONDS  =           0.0000         IRRIGATION PONDS  =           0.0000
           GW IRRIGATION =           0.0000             GW IRRIGATION =           0.0000
           SW IRRIGATION =           0.0000             SW IRRIGATION =           0.0000
        SYSTEM LOSSES GW =           0.0000          SYSTEM LOSSES GW =           0.0000
        SYSTEM LOSSES SW =           0.0000          SYSTEM LOSSES SW =           0.0000

                TOTAL IN =  5056548864.0000                  TOTAL IN =         627.5067

          OUT:                                     OUT:
          ----                                     ----
               AG WELLS  =           0.0000                 AG WELLS  =           0.0000
      DIVERSION SEGMENTS =           0.0000        DIVERSION SEGMENTS =           0.0000
       IRRIGATION PONDS  =           0.0000         IRRIGATION PONDS  =           0.0000
           GW IRRIGATION =  4529143296.0000             GW IRRIGATION =         600.0000
           SW IRRIGATION =   527416064.0000             SW IRRIGATION =          27.5073
        SYSTEM LOSSES GW =           0.0000          SYSTEM LOSSES GW =           0.0000
        SYSTEM LOSSES SW =           0.0000          SYSTEM LOSSES SW =           0.0000

               TOTAL OUT =  5056559104.0000                 TOTAL OUT =         627.5073

                IN - OUT =      -10240.0000                  IN - OUT =      -5.4932E-04

     PERCENT DISCREPANCY =          -0.00         PERCENT DISCREPANCY =          -0.00



1
  VOLUMETRIC BUDGET FOR ENTIRE MODEL AT END OF TIME STEP   30, STRESS PERIOD  20
  ------------------------------------------------------------------------------

     CUMULATIVE VOLUMES      L**3       RATES FOR THIS TIME STEP      L**3/T
     ------------------                 ------------------------

           IN:                                      IN:
           ---                                      ---
             STORAGE     =  3910850816.0000               STORAGE     =          45.4331
       CONSTANT HEAD     =           0.0000         CONSTANT HEAD     =           0.0000
     HEAD DEP BOUNDS     =    14310881.0000       HEAD DEP BOUNDS     =           0.2865
      STREAM LEAKAGE     =   611420544.0000        STREAM LEAKAGE     =          11.9979
        UZF RECHARGE     =  3311427072.0000          UZF RECHARGE     =         603.4868
               GW ET     =           0.0000                 GW ET     =           0.0000
     SURFACE LEAKAGE     =           0.0000       SURFACE LEAKAGE     =           0.0000
           AG WELLS      =           0.0000             AG WELLS      =           0.0000

                TOTAL IN =  7848009216.0000                  TOTAL IN =         661.2042

          OUT:                                     OUT:
          ----                                     ----
             STORAGE     =  2776515584.0000               STORAGE     =          50.2474
       CONSTANT HEAD     =           0.0000         CONSTANT HEAD     =           0.0000
     HEAD DEP BOUNDS     =    14570452.0000       HEAD DEP BOUNDS     =           0.2878
      STREAM LEAKAGE     =   526399008.0000        STREAM LEAKAGE     =          10.6777
        UZF RECHARGE     =           0.0000          UZF RECHARGE     =           0.0000
               GW ET     =     1320838.1250                 GW ET     =           0.0000
     SURFACE LEAKAGE     =           0.0000       SURFACE LEAKAGE     =           0.0000
           AG WELLS      =  4529143296.0000             AG WELLS      =         600.0000

               TOTAL OUT =  7847949312.0000                 TOTAL OUT =         661.2129

                IN - OUT =       59904.0000                  IN - OUT =      -8.6670E-03

     PERCENT DISCREPANCY =           0.00         PERCENT DISCREPANCY =          -0.00






         TIME SUMMARY AT END OF TIME STEP   30 IN STRESS PERIOD   20
                    SECONDS     MINUTES      HOURS       DAYS        YEARS
                    -----------------------------------------------------------
   TIME STEP LENGTH  87667.      1461.1      24.352      1.0147     2.77799E-03
 STRESS PERIOD TIME 2.63000E+06  43833.      730.56      30.440     8.33397E-02
         TOTAL TIME 5.00565E+07 8.34276E+05  13905.      579.36      1.5862    
1
1
                            STRESS PERIOD NO.   21, LENGTH =   2630000.    
                            -----------------------------------------------

                              NUMBER OF TIME STEPS =    30

                               MULTIPLIER FOR DELT =     1.000

                            INITIAL TIME STEP SIZE =   87666.66    

 REUSING NON-PARAMETER GHB CELLS FROM LAST STRESS PERIOD

      2 GHB CELLS

 REUSING STREAM SEGMENT DATA FROM LAST STRESS PERIOD



            AREAL INFILTRATION RATE
 READING ON UNIT   19 WITH FORMAT: (FREE)              

            1           2           3           4           5           6           7           8           9          10
 ........................................................................................................................
   1   1.0000E-10  2.0000E-10   0.000       0.000       0.000       0.000       0.000       0.000       0.000       0.000    
   2   2.0000E-10  1.0000E-10  2.0000E-10   0.000       0.000      8.0000E-10  8.0000E-10  5.0000E-10   0.000       0.000    
   3    0.000      5.0000E-10  1.0000E-10  1.0000E-10  8.0000E-10  8.0000E-10  5.0000E-10  5.0000E-10   0.000       0.000    
   4   8.0000E-10  5.0000E-10  1.0000E-10  1.0000E-10  1.0000E-10  1.0000E-10  1.0000E-10  1.0000E-10  2.0000E-10   0.000    
   5   8.0000E-10  5.0000E-10  1.0000E-10  1.0000E-10  1.0000E-10  1.0000E-10  1.0000E-10  1.0000E-10  1.0000E-10  1.0000E-10
   6   8.0000E-10  5.0000E-10  5.0000E-10  2.0000E-10  2.0000E-10  1.0000E-10  1.0000E-10  1.0000E-10  1.0000E-10  5.0000E-10
   7   8.0000E-10  5.0000E-10  5.0000E-10  2.0000E-10  2.0000E-10  1.0000E-10  1.0000E-10  2.0000E-10  2.0000E-10   0.000    
   8    0.000      5.0000E-10  5.0000E-10  2.0000E-10  2.0000E-10  1.0000E-10  1.0000E-10  2.0000E-10  5.0000E-10   0.000    
   9    0.000      5.0000E-10  5.0000E-10  2.0000E-10  2.0000E-10  1.0000E-10  1.0000E-10  2.0000E-10  5.0000E-10   0.000    
  10    0.000      5.0000E-10  5.0000E-10  2.0000E-10  2.0000E-10  1.0000E-10  1.0000E-10  2.0000E-10  5.0000E-10  8.0000E-10
  11    0.000      1.0000E-10  1.0000E-10  1.0000E-10  1.0000E-10  1.0000E-10  1.0000E-10  2.0000E-10  5.0000E-10   0.000    
  12   1.0000E-10  1.0000E-10  1.0000E-10  1.0000E-10  1.0000E-10  1.0000E-10  1.0000E-10  1.0000E-10  2.0000E-10   0.000    
  13   1.0000E-10  1.0000E-10  2.0000E-10  2.0000E-10  2.0000E-10  2.0000E-10  2.0000E-10  1.0000E-10  1.0000E-10   0.000    
  14    0.000      2.0000E-10  5.0000E-10  5.0000E-10  5.0000E-10  5.0000E-10  5.0000E-10  2.0000E-10  1.0000E-10   0.000    
  15    0.000       0.000      8.0000E-10  8.0000E-10  8.0000E-10  8.0000E-10   0.000       0.000       0.000       0.000    

                  ET RATE =  3.250000E-07

 USING ET EXTINCTION DEPTH FROM PREVIOUS STRESS PERIOD. CURRENT PERIOD IS:      21

 USING EXTINCTION WATER CONTENT FROM PREVIOUS STRESS PERIOD. CURRENT PERIOD IS:      21

 USING AIR ENTRY PRESSURE FROM PREVIOUS STRESS PERIOD. CURRENT PERIOD IS:      21

 USING ROOT PRESSURE HEAD FROM PREVIOUS STRESS PERIOD. CURRENT PERIOD IS:      21

 USING ROOT ACTIVITY FROM PREVIOUS STRESS PERIOD. CURRENT PERIOD IS:      21

 PROCESSING AG STRESS PERIOD DATA

 READING AG STRESS PERIOD DATA

 READING IRRIGATION SEGMENT

 READING IRRIGATION WELL

 READING SUPPLEMENTAL WELL

 NO IRRPOND OR REUSING IRRPOND DATA FROM LAST STRESS PERIOD

 END PROCESSING AG STRESS PERIOD DATA OPTIONS
 
 SOLVING FOR HEAD 
                                                   Max.-Head-Change                         Max.-Flux-Residual
  Residual-Control   Outer-Iter.   Inner-Iter.     Column Row Layer    Maximum-Head-Change  Column Row Layer    Maximum-Flux-Residual          L2-NORM 
          0                 1           2             4    7     1       0.2022953779E+01       4    7    1         0.1056593747E+03      0.2540912677E+03
          0                 2           2             4    8     1       0.1194976570E+01       4    8    1         0.6320005406E+02      0.1396847206E+03
          0                 3           2             4    8     1       0.7223991791E+00       4    8    1         0.3831045745E+02      0.8202578381E+02
          0                 4           2             4    8     1       0.4365855641E+00       4    8    1         0.2314954794E+02      0.4972904561E+02
          0                 5           2             4    7     1       0.2659411024E+00       4    8    1         0.1399099884E+02      0.3015167665E+02
          0                 6           2             4    7     1       0.1623255450E+00       4    7    1         0.8539443931E+01      0.1720818750E+02
          0                 7           2             4    7     1       0.9850379991E-01       4    7    1         0.5208782319E+01      0.9905154728E+01
          0                 8           2             4    7     1       0.5961620309E-01       4    7    1         0.3158166384E+01      0.5934683825E+01
          0                 9           2             4    7     1       0.3604771171E-01       4    7    1         0.1910808163E+01      0.3574981960E+01
          0                10           2             4    7     1       0.2179030955E-01       4    7    1         0.1155277764E+01      0.2155029169E+01
                                                   Max.-Head-Change                         Max.-Flux-Residual
  Residual-Control   Outer-Iter.   Inner-Iter.     Column Row Layer    Maximum-Head-Change  Column Row Layer    Maximum-Flux-Residual          L2-NORM 
          0                11           2             4    7     1       0.1317093510E-01       4    7    1         0.6983264094E+00      0.1299262746E+01
          0                12           2             4    7     1       0.7961031847E-02       4    7    1         0.4220934994E+00      0.7833997665E+00
          0                13           2             4    7     1       0.4812059614E-02       4    7    1         0.2551302173E+00      0.4724010198E+00
          0                14           2             4    7     1       0.2908726288E-02       4    7    1         0.1542144123E+00      0.2848900658E+00
          0                15           2             4    7     1       0.1758261906E-02       4    7    1         0.9321768140E-01      0.1718225598E+00
          0                16           2             4    7     1       0.1062847562E-02       4    7    1         0.5634822514E-01      0.1036374100E+00
          0                17           2             4    7     1       0.6424847738E-03       4    7    1         0.3406187634E-01      0.6251490665E-01
          0                18           2             4    7     1       0.3883801371E-03       4    7    1         0.2059022140E-01      0.3771192326E-01
          0                19           2             4    7     1       0.2347748409E-03       4    7    1         0.1244673593E-01      0.2275094567E-01
          0                20           2             4    7     1       0.1419203710E-03       4    7    1         0.7524021623E-02      0.1372599201E-01
          0                21           1             4    7     1       0.8578967281E-04       4    7    1         0.4548236004E-02      0.8281511154E-02

    ------------------------------------------------
       NWT REQUIRED           21 OUTER ITERATIONS 
       AND A TOTAL OF         41 INNER ITERATIONS.
    ------------------------------------------------

 NO OUTPUT CONTROL FOR STRESS PERIOD   21   TIME STEP    1
 
 SOLVING FOR HEAD 
                                                   Max.-Head-Change                         Max.-Flux-Residual
  Residual-Control   Outer-Iter.   Inner-Iter.     Column Row Layer    Maximum-Head-Change  Column Row Layer    Maximum-Flux-Residual          L2-NORM 
          0                 1           2             4    7     1       0.1981512969E+01       4    7    1         0.1035909119E+03      0.2422766554E+03
          0                 2           2             5    6     1      -0.9514302025E+00       5    6    1        -0.5249892533E+02      0.1135926817E+03
          0                 3           2             5    7     1      -0.5471682159E+00       5    7    1        -0.2984932875E+02      0.6486460836E+02
          0                 4           2             4    7     1      -0.3336079638E+00       4    7    1        -0.1809703110E+02      0.3667637114E+02
          0                 5           2             4    8     1      -0.1900919062E+00       4    8    1        -0.1038460166E+02      0.2042741419E+02
          0                 6           2             5    8     1      -0.1051997946E+00       5    8    1        -0.5859445923E+01      0.1084979000E+02
          0                 7           2             5    8     1      -0.6286978183E-01       5    8    1        -0.3518778028E+01      0.6247126586E+01
          0                 8           2             5    8     1      -0.3748524405E-01       5    8    1        -0.2101670529E+01      0.3747381621E+01
          0                 9           2             4    6     1      -0.2257227177E-01       5    8    1        -0.1252813644E+01      0.2263525714E+01
          0                10           2             4    6     1      -0.1368072581E-01       4    6    1        -0.7557022933E+00      0.1368870501E+01
                                                   Max.-Head-Change                         Max.-Flux-Residual
  Residual-Control   Outer-Iter.   Inner-Iter.     Column Row Layer    Maximum-Head-Change  Column Row Layer    Maximum-Flux-Residual          L2-NORM 
          0                11           2             4    6     1      -0.8291543092E-02       4    6    1        -0.4580082780E+00      0.8281052301E+00
          0                12           2             4    6     1      -0.5025431620E-02       4    6    1        -0.2775828551E+00      0.5010774052E+00
          0                13           2             4    6     1      -0.3046008065E-02       4    6    1        -0.1682385587E+00      0.3032583869E+00
          0                14           2             4    6     1      -0.1846339390E-02       4    6    1        -0.1019715121E+00      0.1835715309E+00
          0                15           2             4    6     1      -0.1119221320E-02       4    6    1        -0.6180950784E-01      0.1111417961E+00
          0                16           2             4    6     1      -0.6784919130E-03       4    6    1        -0.3746759165E-01      0.6730134120E-01
          0                17           2             4    6     1      -0.4113368129E-03       4    6    1        -0.2271331717E-01      0.4076044613E-01
          0                18           2             4    6     1      -0.2493873659E-03       4    6    1        -0.1376986078E-01      0.2468982108E-01
          0                19           2             4    6     1      -0.1512080650E-03       4    6    1        -0.8348385156E-02      0.1495739521E-01
          0                20           1             4    6     1      -0.9168509445E-04       4    6    1        -0.5061730410E-02      0.9062510829E-02

    ------------------------------------------------
       NWT REQUIRED           20 OUTER ITERATIONS 
       AND A TOTAL OF         39 INNER ITERATIONS.
    ------------------------------------------------

 NO OUTPUT CONTROL FOR STRESS PERIOD   21   TIME STEP    2
 
 SOLVING FOR HEAD 
                                                   Max.-Head-Change                         Max.-Flux-Residual
  Residual-Control   Outer-Iter.   Inner-Iter.     Column Row Layer    Maximum-Head-Change  Column Row Layer    Maximum-Flux-Residual          L2-NORM 
          0                 1           2             4    7     1       0.1975569091E+01       4    7    1         0.1032701703E+03      0.2426156487E+03
          0                 2           2             4    6     1       0.1102458246E+01       4    6    1         0.5857629451E+02      0.1329562509E+03
          0                 3           2             4    7     1       0.6431085377E+00       5    8    1         0.3414904339E+02      0.7698162010E+02
          0                 4           2             4    7     1       0.3876971285E+00       4    7    1         0.2033024847E+02      0.4240748977E+02
          0                 5           2             4    7     1       0.2453448128E+00       4    7    1         0.1287031549E+02      0.2668567911E+02
          0                 6           2             4    7     1       0.1500766835E+00       4    7    1         0.7876405675E+01      0.1615676035E+02
          0                 7           2             4    7     1       0.9175501335E-01       4    7    1         0.4817618207E+01      0.9783391844E+01
          0                 8           2             4    7     1       0.5607147571E-01       4    7    1         0.2945228249E+01      0.5924915733E+01
          0                 9           2             4    7     1       0.3425024898E-01       4    7    1         0.1799712198E+01      0.3588613147E+01
          0                10           2             4    7     1       0.2091258744E-01       4    7    1         0.1099255184E+01      0.2173793458E+01
                                                   Max.-Head-Change                         Max.-Flux-Residual
  Residual-Control   Outer-Iter.   Inner-Iter.     Column Row Layer    Maximum-Head-Change  Column Row Layer    Maximum-Flux-Residual          L2-NORM 
          0                11           2             4    7     1       0.1276396906E-01       4    7    1         0.6711474556E+00      0.1316899220E+01
          0                12           2             4    7     1       0.7787684359E-02       4    7    1         0.4096121836E+00      0.7978573257E+00
          0                13           2             4    7     1       0.4749910233E-02       4    7    1         0.2499043720E+00      0.4834287904E+00
          0                14           2             4    7     1       0.2896183004E-02       4    7    1         0.1524160302E+00      0.2929347241E+00
          0                15           2             4    7     1       0.1765381304E-02       4    7    1         0.9292920447E-01      0.1775158342E+00
          0                16           2             4    7     1       0.1075798003E-02       4    7    1         0.5664308146E-01      0.1075792170E+00
          0                17           2             4    7     1       0.6554051258E-03       4    7    1         0.3451614501E-01      0.6519917944E-01
          0                18           2             4    7     1       0.3991926241E-03       4    7    1         0.2102740037E-01      0.3951627914E-01
          0                19           2             4    7     1       0.2430832171E-03       4    7    1         0.1280688134E-01      0.2395124290E-01
          0                20           2             4    7     1       0.1479902225E-03       4    7    1         0.7798334195E-02      0.1451764957E-01
          0                21           1             4    7     1       0.9007868766E-04       4    7    1         0.4747518709E-02      0.8799928551E-02

    ------------------------------------------------
       NWT REQUIRED           21 OUTER ITERATIONS 
       AND A TOTAL OF         41 INNER ITERATIONS.
    ------------------------------------------------

 NO OUTPUT CONTROL FOR STRESS PERIOD   21   TIME STEP    3
 
 SOLVING FOR HEAD 
                                                   Max.-Head-Change                         Max.-Flux-Residual
  Residual-Control   Outer-Iter.   Inner-Iter.     Column Row Layer    Maximum-Head-Change  Column Row Layer    Maximum-Flux-Residual          L2-NORM 
          0                 1           2             4    7     1       0.1937858528E+01       4    7    1         0.1014033085E+03      0.2319045781E+03
          0                 2           2             4    6     1       0.8474359842E+00       4    6    1         0.4503174856E+02      0.9916396545E+02
          0                 3           2             4    6     1       0.5105345702E+00       4    6    1         0.2714571328E+02      0.5795538741E+02
          0                 4           2             4    7     1       0.2847457657E+00       4    7    1         0.1501584467E+02      0.2967987316E+02
          0                 5           2             4    7     1       0.1723890540E+00       4    7    1         0.9133354458E+01      0.1722629089E+02
          0                 6           2             4    7     1       0.1043101256E+00       4    7    1         0.5525243720E+01      0.1040222068E+02
          0                 7           2             4    7     1       0.6313193813E-01       4    7    1         0.3343380127E+01      0.6282921767E+01
          0                 8           2             4    7     1       0.3821803782E-01       4    7    1         0.2023597117E+01      0.3795706045E+01
          0                 9           2             4    7     1       0.2314064606E-01       4    7    1         0.1225059902E+01      0.2293570293E+01
          0                10           2             4    7     1       0.1401400206E-01       4    7    1         0.7417832041E+00      0.1386161132E+01
                                                   Max.-Head-Change                         Max.-Flux-Residual
  Residual-Control   Outer-Iter.   Inner-Iter.     Column Row Layer    Maximum-Head-Change  Column Row Layer    Maximum-Flux-Residual          L2-NORM 
          0                11           2             4    7     1       0.8488302086E-02       4    7    1         0.4492364577E+00      0.8378987094E+00
          0                12           2             4    7     1       0.5142145407E-02       4    7    1         0.2721095597E+00      0.5065704519E+00
          0                13           2             4    7     1       0.3115489078E-02       4    7    1         0.1648452528E+00      0.3063046053E+00
          0                14           2             4    7     1       0.1887819521E-02       4    7    1         0.9987723332E-01      0.1852370111E+00
          0                15           2             4    7     1       0.1144040961E-02       4    7    1         0.6052127465E-01      0.1120361521E+00
          0                16           2             4    7     1       0.6933691341E-03       4    7    1         0.3667716100E-01      0.6777051138E-01
          0                17           2             4    7     1       0.4202663929E-03       4    7    1         0.2222923290E-01      0.4099886256E-01
          0                18           2             4    7     1       0.2547521429E-03       4    7    1         0.1347379143E-01      0.2480549697E-01
          0                19           2             4    7     1       0.1544330406E-03       4    7    1         0.8167470990E-02      0.1500949302E-01
          0                20           1             4    7     1       0.9362423993E-04       4    7    1         0.4951240673E-02      0.9082872493E-02

    ------------------------------------------------
       NWT REQUIRED           20 OUTER ITERATIONS 
       AND A TOTAL OF         39 INNER ITERATIONS.
    ------------------------------------------------

 NO OUTPUT CONTROL FOR STRESS PERIOD   21   TIME STEP    4
 
 SOLVING FOR HEAD 
                                                   Max.-Head-Change                         Max.-Flux-Residual
  Residual-Control   Outer-Iter.   Inner-Iter.     Column Row Layer    Maximum-Head-Change  Column Row Layer    Maximum-Flux-Residual          L2-NORM 
          0                 1           2             4    7     1       0.1897280850E+01       4    7    1         0.9940060434E+02      0.2231132943E+03
          0                 2           2             5    8     1      -0.1079909613E+01       5    8    1        -0.5996554593E+02      0.1159076726E+03
          0                 3           2             5    6     1      -0.5368172748E+00       5    6    1        -0.2969429466E+02      0.6656493204E+02
          0                 4           2             5    6     1      -0.3251253666E+00       5    6    1        -0.1797221612E+02      0.4090980277E+02
          0                 5           2             5    6     1      -0.1970305899E+00       5    6    1        -0.1088530089E+02      0.2515181781E+02
          0                 6           2             4    8     1      -0.1180532704E+00       4    6    1        -0.6433071310E+01      0.1481412255E+02
          0                 7           2             4    8     1      -0.7274156567E-01       4    8    1        -0.3959219452E+01      0.8205173633E+01
          0                 8           2             4    8     1      -0.4481775875E-01       4    8    1        -0.2439530074E+01      0.4766144626E+01
          0                 9           2             4    8     1      -0.2760962846E-01       4    8    1        -0.1503011046E+01      0.2894072272E+01
          0                10           2             4    8     1      -0.1700617793E-01       4    8    1        -0.9258905882E+00      0.1769990663E+01
                                                   Max.-Head-Change                         Max.-Flux-Residual
  Residual-Control   Outer-Iter.   Inner-Iter.     Column Row Layer    Maximum-Head-Change  Column Row Layer    Maximum-Flux-Residual          L2-NORM 
          0                11           2             4    8     1      -0.1047337674E-01       4    8    1        -0.5702857278E+00      0.1083674034E+01
          0                12           2             4    8     1      -0.6449125566E-02       4    8    1        -0.3512037788E+00      0.6635967542E+00
          0                13           2             4    8     1      -0.3970545172E-02       4    8    1        -0.2162519764E+00      0.4063853796E+00
          0                14           2             4    8     1      -0.2444196361E-02       4    8    1        -0.1331362631E+00      0.2488832053E+00
          0                15           2             4    8     1      -0.1504389393E-02       4    8    1        -0.8195386976E-01      0.1524320550E+00
          0                16           2             4    8     1      -0.9258151170E-03       4    8    1        -0.5044068377E-01      0.9336395602E-01
          0                17           2             4    8     1      -0.5696783716E-03       4    8    1        -0.3104076935E-01      0.5718774994E-01
          0                18           2             4    8     1      -0.3504921255E-03       4    8    1        -0.1909965923E-01      0.3503047690E-01
          0                19           2             4    8     1      -0.2156112699E-03       4    8    1        -0.1175065290E-01      0.2145886908E-01
          0                20           2             4    8     1      -0.1326205646E-03       4    8    1        -0.7228417026E-02      0.1314570519E-01
          0                21           1             4    8     1      -0.8156390806E-04       4    8    1        -0.4446013583E-02      0.8053336688E-02

    ------------------------------------------------
       NWT REQUIRED           21 OUTER ITERATIONS 
       AND A TOTAL OF         41 INNER ITERATIONS.
    ------------------------------------------------

 NO OUTPUT CONTROL FOR STRESS PERIOD   21   TIME STEP    5
 
 SOLVING FOR HEAD 
                                                   Max.-Head-Change                         Max.-Flux-Residual
  Residual-Control   Outer-Iter.   Inner-Iter.     Column Row Layer    Maximum-Head-Change  Column Row Layer    Maximum-Flux-Residual          L2-NORM 
          0                 1           2             4    7     1       0.1884892244E+01       4    7    1         0.9870938025E+02      0.2245129656E+03
          0                 2           2             4    7     1       0.1153419771E+01       4    7    1         0.6048907338E+02      0.1310307365E+03
          0                 3           2             5    7     1       0.6334440152E+00       5    7    1         0.3393062266E+02      0.6979460424E+02
          0                 4           2             5    7     1       0.3722246040E+00       5    7    1         0.1993909678E+02      0.3894471243E+02
          0                 5           2             4    6     1       0.2217173513E+00       4    6    1         0.1179205983E+02      0.2256654852E+02
          0                 6           2             4    6     1       0.1334949368E+00       4    6    1         0.7101486523E+01      0.1290597588E+02
          0                 7           2             4    6     1       0.8035139129E-01       4    6    1         0.4275654556E+01      0.7683074274E+01
          0                 8           2             4    6     1       0.4834777264E-01       4    6    1         0.2573433091E+01      0.4596734021E+01
          0                 9           2             4    6     1       0.2908164130E-01       4    6    1         0.1548375389E+01      0.2752026392E+01
          0                10           2             4    6     1       0.1748758276E-01       4    6    1         0.9313211752E+00      0.1648014471E+01
                                                   Max.-Head-Change                         Max.-Flux-Residual
  Residual-Control   Outer-Iter.   Inner-Iter.     Column Row Layer    Maximum-Head-Change  Column Row Layer    Maximum-Flux-Residual          L2-NORM 
          0                11           2             4    6     1       0.1051281325E-01       4    6    1         0.5600053802E+00      0.9871111479E+00
          0                12           2             4    6     1       0.6318238502E-02       4    6    1         0.3366390302E+00      0.5913806637E+00
          0                13           2             4    6     1       0.3796382808E-02       4    6    1         0.2023139791E+00      0.3543724983E+00
          0                14           2             4    6     1       0.2280600800E-02       4    6    1         0.1215585311E+00      0.2123922998E+00
          0                15           2             4    6     1       0.1369750905E-02       4    6    1         0.7302161433E-01      0.1273201289E+00
          0                16           2             4    6     1       0.8225345567E-03       4    6    1         0.4385625427E-01      0.7633589384E-01
          0                17           2             4    6     1       0.4938483409E-03       4    6    1         0.2633497279E-01      0.4577498526E-01
          0                18           2             4    6     1       0.2964600032E-03       4    6    1         0.1581109803E-01      0.2745301361E-01
          0                19           2             4    6     1       0.1779415668E-03       4    6    1         0.9491287246E-02      0.1646680575E-01
          0                20           1             4    6     1       0.1067906963E-03       4    6    1         0.5696758401E-02      0.9878289647E-02
          0                21           1             4    6     1       0.6408220847E-04       4    6    1         0.3418809595E-02      0.5926565809E-02

    ------------------------------------------------
       NWT REQUIRED           21 OUTER ITERATIONS 
       AND A TOTAL OF         40 INNER ITERATIONS.
    ------------------------------------------------

 NO OUTPUT CONTROL FOR STRESS PERIOD   21   TIME STEP    6
 
 SOLVING FOR HEAD 
                                                   Max.-Head-Change                         Max.-Flux-Residual
  Residual-Control   Outer-Iter.   Inner-Iter.     Column Row Layer    Maximum-Head-Change  Column Row Layer    Maximum-Flux-Residual          L2-NORM 
          0                 1           2             4    7     1       0.1843006459E+01       4    7    1         0.9673651733E+02      0.2051064884E+03
          0                 2           2             4    7     1       0.8829383675E+00       4    7    1         0.4676508898E+02      0.7907144992E+02
          0                 3           2             4    7     1       0.5341303774E+00       4    7    1         0.2829895706E+02      0.4480058588E+02
          0                 4           2             4    8     1       0.2409073937E+00       4    8    1         0.1294321298E+02      0.2276086867E+02
          0                 5           2             4    8     1       0.1421933395E+00       4    8    1         0.7687769015E+01      0.1250143884E+02
          0                 6           2             4    8     1       0.8364677863E-01       4    8    1         0.4532888074E+01      0.7271215771E+01
          0                 7           2             4    8     1       0.4914489627E-01       4    8    1         0.2665500163E+01      0.4263337129E+01
          0                 8           2             4    8     1       0.2886054218E-01       4    8    1         0.1565837343E+01      0.2502731415E+01
          0                 9           2             4    8     1       0.1694542454E-01       4    8    1         0.9194962321E+00      0.1469856034E+01
          0                10           2             4    8     1       0.9948759359E-02       4    8    1         0.5398701434E+00      0.8635960265E+00
                                                   Max.-Head-Change                         Max.-Flux-Residual
  Residual-Control   Outer-Iter.   Inner-Iter.     Column Row Layer    Maximum-Head-Change  Column Row Layer    Maximum-Flux-Residual          L2-NORM 
          0                11           2             4    8     1       0.5840788042E-02       4    8    1         0.3169584692E+00      0.5075983611E+00
          0                12           2             4    8     1       0.3428994306E-02       4    8    1         0.1860815721E+00      0.2984672570E+00
          0                13           2             4    8     1       0.2013064100E-02       4    8    1         0.1092440721E+00      0.1755618228E+00
          0                14           2             4    8     1       0.1181803245E-02       4    8    1         0.6413397995E-01      0.1033021839E+00
          0                15           2             4    8     1       0.6937933352E-03       4    8    1         0.3765089964E-01      0.6080289629E-01
          0                16           2             4    8     1       0.4072985368E-03       4    8    1         0.2210344460E-01      0.3579845253E-01
          0                17           2             4    8     1       0.2391077624E-03       4    8    1         0.1297604635E-01      0.2108239946E-01
          0                18           2             4    8     1       0.1403695387E-03       4    8    1         0.7617684001E-02      0.1241889364E-01
          0                19           1             4    8     1       0.8240440959E-04       4    8    1         0.4472001357E-02      0.7317198599E-02

    ------------------------------------------------
       NWT REQUIRED           19 OUTER ITERATIONS 
       AND A TOTAL OF         37 INNER ITERATIONS.
    ------------------------------------------------

 NO OUTPUT CONTROL FOR STRESS PERIOD   21   TIME STEP    7
 
 SOLVING FOR HEAD 
                                                   Max.-Head-Change                         Max.-Flux-Residual
  Residual-Control   Outer-Iter.   Inner-Iter.     Column Row Layer    Maximum-Head-Change  Column Row Layer    Maximum-Flux-Residual          L2-NORM 
          0                 1           2             4    7     1       0.1790537976E+01       4    7    1         0.9597832780E+02      0.1495834824E+03
          0                 2           2             5    8     1      -0.1844964984E+01       5    8    1        -0.9901690912E+02      0.2097018338E+03
          0                 3           2             4    6     1      -0.6231273374E+00       4    6    1        -0.3436855549E+02      0.5623646752E+02
          0                 4           2             4    6     1      -0.3739734390E+00       4    6    1        -0.2082976669E+02      0.2276861255E+02
          0                 5           2             4    6     1      -0.2230600232E+00       4    6    1        -0.1247951847E+02      0.1278936630E+02
          0                 6           2             4    6     1      -0.1329816624E+00       4    6    1        -0.7443393647E+01      0.7588189450E+01
          0                 7           2             4    6     1      -0.7931439924E-01       4    6    1        -0.4437149784E+01      0.4538671898E+01
          0                 8           2             4    6     1      -0.4733104068E-01       4    6    1        -0.2646552537E+01      0.2718793502E+01
          0                 9           2             4    6     1      -0.2825967954E-01       4    6    1        -0.1579395387E+01      0.1630218014E+01
          0                10           2             4    6     1      -0.1688146658E-01       4    6    1        -0.9430361924E+00      0.9783310311E+00
                                                   Max.-Head-Change                         Max.-Flux-Residual
  Residual-Control   Outer-Iter.   Inner-Iter.     Column Row Layer    Maximum-Head-Change  Column Row Layer    Maximum-Flux-Residual          L2-NORM 
          0                11           2             4    6     1      -0.1008950729E-01       4    6    1        -0.5633618664E+00      0.5875870228E+00
          0                12           2             4    6     1      -0.6033118518E-02       4    6    1        -0.3367154879E+00      0.3531702711E+00
          0                13           2             4    6     1      -0.3609285117E-02       4    6    1        -0.2013494709E+00      0.2124230866E+00
          0                14           2             4    6     1      -0.2160246323E-02       4    6    1        -0.1204605706E+00      0.1278513882E+00
          0                15           2             4    6     1      -0.1293550516E-02       4    6    1        -0.7210105897E-01      0.7699746538E-01
          0                16           2             4    6     1      -0.7749198707E-03       4    6    1        -0.4317535703E-01      0.4639769694E-01
          0                17           2             4    6     1      -0.4644283267E-03       4    6    1        -0.2586562830E-01      0.2797357343E-01
          0                18           2             4    6     1      -0.2784609450E-03       4    6    1        -0.1550237124E-01      0.1687385537E-01
          0                19           2             4    6     1      -0.1670277940E-03       4    6    1        -0.9295150409E-02      0.1018309289E-01
          0                20           1             4    6     1      -0.1002275754E-03       4    6    1        -0.5575618697E-02      0.6147932848E-02
          0                21           1             4    6     1      -0.6016651958E-04       4    6    1        -0.3345825019E-02      0.3713200774E-02

    ------------------------------------------------
       NWT REQUIRED           21 OUTER ITERATIONS 
       AND A TOTAL OF         40 INNER ITERATIONS.
    ------------------------------------------------

 NO OUTPUT CONTROL FOR STRESS PERIOD   21   TIME STEP    8
 
 SOLVING FOR HEAD 
                                                   Max.-Head-Change                         Max.-Flux-Residual
  Residual-Control   Outer-Iter.   Inner-Iter.     Column Row Layer    Maximum-Head-Change  Column Row Layer    Maximum-Flux-Residual          L2-NORM 
          0                 1           2             4    6     1       0.1501838364E+01       4    6    1         0.8214519437E+02      0.8998334899E+02
          0                 2           2             4    6     1       0.3263681053E+00       4    6    1         0.1782202839E+02      0.1810523369E+02
          0                 3           2             4    6     1       0.6944192515E-01       4    6    1         0.3789125101E+01      0.3801903502E+01
          0                 4           2             4    6     1       0.9048891375E-02       4    6    1         0.5026896393E+00      0.8555530792E+00
          0                 5           2             4    6     1       0.9919042913E-02       4    6    1         0.5298549254E+00      0.1082544549E+01
          0                 6           2             4    6     1       0.2178211253E-02       4    6    1         0.1174495859E+00      0.1570210046E+00
          0                 7           2             4    7     1       0.5037528543E-03       4    7    1         0.2947162322E-01      0.3915678744E-01
          0                 8           1             4    7     1       0.1426192966E-03       4    7    1         0.8366133851E-02      0.1011462406E-01
          0                 9           1             4    7     1       0.4025166523E-04       4    7    1         0.2366110539E-02      0.2680525629E-02

    ------------------------------------------------
       NWT REQUIRED            9 OUTER ITERATIONS 
       AND A TOTAL OF         16 INNER ITERATIONS.
    ------------------------------------------------

 NO OUTPUT CONTROL FOR STRESS PERIOD   21   TIME STEP    9
 
 SOLVING FOR HEAD 
                                                   Max.-Head-Change                         Max.-Flux-Residual
  Residual-Control   Outer-Iter.   Inner-Iter.     Column Row Layer    Maximum-Head-Change  Column Row Layer    Maximum-Flux-Residual          L2-NORM 
          0                 1           2             4    6     1      -0.2833535065E+00       5    6    1        -0.1546717401E+02      0.3844475226E+02
          0                 2           2             4    7     1      -0.2370624641E+00       4    7    1        -0.1242589719E+02      0.2834658766E+02
          0                 3           2             4    7     1       0.2305849310E-01       4    7    1         0.1242641833E+01      0.2827982963E+01
          0                 4           2             4    7     1      -0.1570209964E-02       4    7    1        -0.8699464250E-01      0.1977206454E+00
          0                 5           1             4    7     1       0.6248006509E-04       4    7    1         0.3558436116E-02      0.8086798225E-02

    ------------------------------------------------
       NWT REQUIRED            5 OUTER ITERATIONS 
       AND A TOTAL OF          9 INNER ITERATIONS.
    ------------------------------------------------

 NO OUTPUT CONTROL FOR STRESS PERIOD   21   TIME STEP   10
 
 SOLVING FOR HEAD 
                                                   Max.-Head-Change                         Max.-Flux-Residual
  Residual-Control   Outer-Iter.   Inner-Iter.     Column Row Layer    Maximum-Head-Change  Column Row Layer    Maximum-Flux-Residual          L2-NORM 
          0                 1           2             4    6     1      -0.2717028501E+00       4    6    1        -0.1479281861E+02      0.3516224944E+02
          0                 2           2             4    7     1      -0.1906918111E+01       4    7    1        -0.9966985714E+02      0.2425928333E+03
          0                 3           2             4    7     1       0.1853382133E+00       4    7    1         0.9963418523E+01      0.2299417450E+02
          0                 4           2             4    7     1      -0.1262152161E-01       5    7    1        -0.6976726779E+00      0.1611472307E+01
          0                 5           2             4    7     1       0.5022189052E-03       5    7    1         0.2853766799E-01      0.6602396398E-01
          0                 6           1             4    7     1      -0.6192582259E-05       5    7    1        -0.3617076381E-03      0.8556330155E-03

    ------------------------------------------------
       NWT REQUIRED            6 OUTER ITERATIONS 
       AND A TOTAL OF         11 INNER ITERATIONS.
    ------------------------------------------------

 NO OUTPUT CONTROL FOR STRESS PERIOD   21   TIME STEP   11
 
 SOLVING FOR HEAD 
                                                   Max.-Head-Change                         Max.-Flux-Residual
  Residual-Control   Outer-Iter.   Inner-Iter.     Column Row Layer    Maximum-Head-Change  Column Row Layer    Maximum-Flux-Residual          L2-NORM 
          0                 1           2             4    6     1      -0.2225148474E+00       4    6    1        -0.1212969106E+02      0.2776515706E+02
          0                 2           2             4    6     1       0.2099900796E-01       4    6    1         0.1177717155E+01      0.2727238861E+01
          0                 3           2             4    6     1      -0.2673615770E-02       4    6    1        -0.1521092217E+00      0.3221839484E+00
          0                 4           2             4    7     1      -0.5704064657E-02       4    7    1        -0.3150162369E+00      0.7693154410E+00
          0                 5           2             4    7     1       0.7683333503E-02       4    7    1         0.4360864164E+00      0.1072799057E+01
          0                 6           1             4    7     1      -0.9481241023E-04       5    8    1        -0.5536356916E-02      0.1514070603E-01

    ------------------------------------------------
       NWT REQUIRED            6 OUTER ITERATIONS 
       AND A TOTAL OF         11 INNER ITERATIONS.
    ------------------------------------------------

 NO OUTPUT CONTROL FOR STRESS PERIOD   21   TIME STEP   12
 
 SOLVING FOR HEAD 
                                                   Max.-Head-Change                         Max.-Flux-Residual
  Residual-Control   Outer-Iter.   Inner-Iter.     Column Row Layer    Maximum-Head-Change  Column Row Layer    Maximum-Flux-Residual          L2-NORM 
          0                 1           2             4    6     1      -0.2121746281E+00       4    6    1        -0.1156224720E+02      0.2641701576E+02
          0                 2           2             4    7     1      -0.2305891194E+00       4    7    1        -0.1206391577E+02      0.2879218542E+02
          0                 3           2             4    7     1       0.2242905053E-01       4    7    1         0.1206436293E+01      0.2875982223E+01
          0                 4           2             4    7     1      -0.1527344911E-02       4    7    1        -0.8445845981E-01      0.2012165273E+00
          0                 5           1             4    7     1       0.6077443564E-04       4    7    1         0.3454641979E-02      0.8231223862E-02

    ------------------------------------------------
       NWT REQUIRED            5 OUTER ITERATIONS 
       AND A TOTAL OF          9 INNER ITERATIONS.
    ------------------------------------------------

 NO OUTPUT CONTROL FOR STRESS PERIOD   21   TIME STEP   13
 
 SOLVING FOR HEAD 
                                                   Max.-Head-Change                         Max.-Flux-Residual
  Residual-Control   Outer-Iter.   Inner-Iter.     Column Row Layer    Maximum-Head-Change  Column Row Layer    Maximum-Flux-Residual          L2-NORM 
          0                 1           2             5    8     1       0.8878107983E+00       5    8    1         0.4894751154E+02      0.5457395083E+02
          0                 2           2             4    7     1      -0.1907307245E+01       4    7    1        -0.9968135090E+02      0.2350199067E+03
          0                 3           2             5    8     1      -0.7376049873E+00       5    8    1        -0.4221881474E+02      0.4772813568E+02
          0                 4           2             5    8     1      -0.4345222000E+00       5    8    1        -0.2459938949E+02      0.2464675824E+02
          0                 5           2             5    8     1      -0.7167730478E-01       5    8    1        -0.4061240275E+01      0.4061613329E+01
          0                 6           1             5    8     1       0.4882727785E-02       5    8    1         0.2844194661E+00      0.2844401751E+00
          0                 7           1             5    8     1      -0.1944280600E-03       5    8    1        -0.1164244352E-01      0.1164421352E-01
          0                 8           1             5    8     1       0.2402719243E-05       5    8    1         0.1478900201E-03      0.1479308277E-03

    ------------------------------------------------
       NWT REQUIRED            8 OUTER ITERATIONS 
       AND A TOTAL OF         13 INNER ITERATIONS.
    ------------------------------------------------

 NO OUTPUT CONTROL FOR STRESS PERIOD   21   TIME STEP   14
 
 SOLVING FOR HEAD 
                                                   Max.-Head-Change                         Max.-Flux-Residual
  Residual-Control   Outer-Iter.   Inner-Iter.     Column Row Layer    Maximum-Head-Change  Column Row Layer    Maximum-Flux-Residual          L2-NORM 
          0                 1           2             4    8     1       0.5691417649E+00       4    8    1         0.3038608842E+02      0.5032900149E+02
          0                 2           2             5    7     1       0.2621154837E+00       5    7    1         0.1430398697E+02      0.1982166905E+02
          0                 3           2             5    7     1       0.1508362693E+00       5    7    1         0.8263711762E+01      0.9509656909E+01
          0                 4           2             5    7     1       0.4430053277E-01       5    7    1         0.2427190467E+01      0.2963639234E+01
          0                 5           2             4    7     1       0.2489883561E-01       4    7    1         0.1326667153E+01      0.2008145965E+01
          0                 6           2             4    7     1       0.1470085496E-01       4    7    1         0.7942695710E+00      0.8911782449E+00
          0                 7           2             4    7     1       0.8628885748E-02       4    7    1         0.4681890467E+00      0.4836794606E+00
          0                 8           2             4    7     1       0.5050495430E-02       4    7    1         0.2746084683E+00      0.2772432133E+00
          0                 9           2             4    7     1       0.2951979010E-02       4    7    1         0.1606710458E+00      0.1611884982E+00
          0                10           1             4    7     1       0.1724246856E-02       4    7    1         0.9389469073E-01      0.9402142736E-01
                                                   Max.-Head-Change                         Max.-Flux-Residual
  Residual-Control   Outer-Iter.   Inner-Iter.     Column Row Layer    Maximum-Head-Change  Column Row Layer    Maximum-Flux-Residual          L2-NORM 
          0                11           1             4    7     1       0.1006797472E-02       4    7    1         0.5483907413E-01      0.5487941223E-01
          0                12           1             4    7     1       0.5877794955E-03       4    7    1         0.3201950527E-01      0.3203575749E-01
          0                13           1             4    7     1       0.3431248857E-03       4    7    1         0.1869295778E-01      0.1870068564E-01
          0                14           1             4    7     1       0.2002963533E-03       4    7    1         0.1091217797E-01      0.1091623143E-01
          0                15           1             4    7     1       0.1169191180E-03       4    7    1         0.6369863421E-02      0.6372104896E-02
          0                16           1             4    7     1       0.6824862726E-04       4    7    1         0.3718275436E-02      0.3719548992E-02

    ------------------------------------------------
       NWT REQUIRED           16 OUTER ITERATIONS 
       AND A TOTAL OF         25 INNER ITERATIONS.
    ------------------------------------------------

 NO OUTPUT CONTROL FOR STRESS PERIOD   21   TIME STEP   15
 
 SOLVING FOR HEAD 
                                                   Max.-Head-Change                         Max.-Flux-Residual
  Residual-Control   Outer-Iter.   Inner-Iter.     Column Row Layer    Maximum-Head-Change  Column Row Layer    Maximum-Flux-Residual          L2-NORM 
          0                 1           2             4    7     1       0.4391986041E+00       4    7    1         0.2390163024E+02      0.3619488051E+02
          0                 2           2             5    7     1      -0.2477025425E+00       5    7    1        -0.1330717806E+02      0.2591289486E+02
          0                 3           2             4    6     1      -0.5631831235E-01       4    6    1        -0.3102899109E+01      0.4500886568E+01
          0                 4           2             4    6     1      -0.1753023414E-01       4    6    1        -0.9655486421E+00      0.1290531533E+01
          0                 5           2             4    6     1      -0.5456289702E-02       4    6    1        -0.3005401769E+00      0.4002066561E+00
          0                 6           2             4    6     1      -0.1698173366E-02       4    6    1        -0.9353919891E-01      0.1244294570E+00
          0                 7           2             4    6     1      -0.5284982223E-03       4    6    1        -0.2911135197E-01      0.3869946385E-01
          0                 8           2             4    6     1      -0.1644687885E-03       4    6    1        -0.9059582256E-02      0.1203638060E-01
          0                 9           1             4    6     1      -0.5118035329E-04       4    6    1        -0.2819245052E-02      0.3743755951E-02

    ------------------------------------------------
       NWT REQUIRED            9 OUTER ITERATIONS 
       AND A TOTAL OF         17 INNER ITERATIONS.
    ------------------------------------------------

 NO OUTPUT CONTROL FOR STRESS PERIOD   21   TIME STEP   16
 
 SOLVING FOR HEAD 
                                                   Max.-Head-Change                         Max.-Flux-Residual
  Residual-Control   Outer-Iter.   Inner-Iter.     Column Row Layer    Maximum-Head-Change  Column Row Layer    Maximum-Flux-Residual          L2-NORM 
          0                 1           2             5    8     1       0.1067355046E+01       5    8    1         0.5884143879E+02      0.6093297406E+02
          0                 2           2             4    7     1      -0.1926967986E+01       5    6    1        -0.1009636705E+03      0.2339520471E+03
          0                 3           2             5    8     1      -0.7145208969E+00       5    8    1        -0.4089782334E+02      0.4653891605E+02
          0                 4           2             5    8     1      -0.4201904434E+00       5    8    1        -0.2378207798E+02      0.2383219675E+02
          0                 5           2             5    8     1      -0.2469370424E+00       5    8    1        -0.1398741989E+02      0.1398753115E+02
          0                 6           2             5    8     1      -0.1453829668E+00       5    8    1        -0.8226405663E+01      0.8226413916E+01
          0                 7           2             5    8     1      -0.3360729328E-01       5    8    1        -0.1901533983E+01      0.1901539109E+01
          0                 8           1             5    8     1       0.2290127376E-02       5    8    1         0.1332244328E+00      0.1332276279E+00
          0                 9           1             5    8     1      -0.9123454147E-04       5    8    1        -0.5456335867E-02      0.5457021113E-02

    ------------------------------------------------
       NWT REQUIRED            9 OUTER ITERATIONS 
       AND A TOTAL OF         16 INNER ITERATIONS.
    ------------------------------------------------

 NO OUTPUT CONTROL FOR STRESS PERIOD   21   TIME STEP   17
 
 SOLVING FOR HEAD 
                                                   Max.-Head-Change                         Max.-Flux-Residual
  Residual-Control   Outer-Iter.   Inner-Iter.     Column Row Layer    Maximum-Head-Change  Column Row Layer    Maximum-Flux-Residual          L2-NORM 
          0                 1           2             5    8     1       0.1061802501E+01       5    8    1         0.5771467319E+02      0.6883809369E+02
          0                 2           2             4    8     1       0.3418003023E+00       4    8    1         0.1831015806E+02      0.2740652392E+02
          0                 3           2             4    8     1       0.2011656121E+00       4    8    1         0.1083152354E+02      0.1377434742E+02
          0                 4           2             4    8     1       0.1127468783E+00       4    8    1         0.6091621509E+01      0.7272764153E+01
          0                 5           2             4    8     1       0.7442280203E-01       4    8    1         0.4013886940E+01      0.4974912862E+01
          0                 6           2             4    8     1       0.4176806782E-01       4    8    1         0.2253736452E+01      0.2797598397E+01
          0                 7           2             5    7     1       0.1576311444E-01       5    7    1         0.8635513628E+00      0.1169829395E+01
          0                 8           2             5    7     1       0.9139028716E-02       5    7    1         0.5008073121E+00      0.6001952554E+00
          0                 9           2             5    7     1       0.5298109560E-02       5    7    1         0.2903406662E+00      0.3381429293E+00
          0                10           2             5    7     1       0.3071748198E-02       5    7    1         0.1683163434E+00      0.1959407716E+00
                                                   Max.-Head-Change                         Max.-Flux-Residual
  Residual-Control   Outer-Iter.   Inner-Iter.     Column Row Layer    Maximum-Head-Change  Column Row Layer    Maximum-Flux-Residual          L2-NORM 
          0                11           2             5    7     1       0.1781312533E-02       5    7    1         0.9758861283E-01      0.1143821190E+00
          0                12           2             5    7     1       0.1033260912E-02       5    7    1         0.5659366963E-01      0.6690902394E-01
          0                13           2             5    7     1       0.5995273508E-03       5    7    1         0.3282881778E-01      0.3916938132E-01
          0                14           2             5    7     1       0.3479719550E-03       5    7    1         0.1904905879E-01      0.2294099908E-01
          0                15           2             5    7     1       0.2020315248E-03       5    7    1         0.1105678698E-01      0.1344152482E-01
          0                16           2             5    7     1       0.1173370188E-03       5    7    1         0.6419843412E-02      0.7878506078E-02
          0                17           1             5    7     1       0.6816982427E-04       5    7    1         0.3728731297E-02      0.4619456768E-02

    ------------------------------------------------
       NWT REQUIRED           17 OUTER ITERATIONS 
       AND A TOTAL OF         33 INNER ITERATIONS.
    ------------------------------------------------

 NO OUTPUT CONTROL FOR STRESS PERIOD   21   TIME STEP   18
 
 SOLVING FOR HEAD 
                                                   Max.-Head-Change                         Max.-Flux-Residual
  Residual-Control   Outer-Iter.   Inner-Iter.     Column Row Layer    Maximum-Head-Change  Column Row Layer    Maximum-Flux-Residual          L2-NORM 
          0                 1           2             5    6     1       0.1067650092E+01       5    6    1         0.5820226316E+02      0.8345408277E+02
          0                 2           2             4    8     1      -0.2381404968E+00       4    8    1        -0.1277891828E+02      0.2204270596E+02
          0                 3           2             4    6     1       0.1030896649E+00       4    6    1         0.5601483872E+01      0.6294095815E+01
          0                 4           2             4    6     1       0.6026719233E-01       4    6    1         0.3279907427E+01      0.3377716717E+01
          0                 5           2             4    6     1       0.3520054746E-01       4    6    1         0.1916975357E+01      0.1932233474E+01
          0                 6           2             4    6     1       0.1143895759E-01       4    6    1         0.6227661081E+00      0.6274736074E+00
          0                 7           2             4    6     1       0.3270045303E-02       4    6    1         0.1779467911E+00      0.1796502158E+00
          0                 8           2             4    6     1       0.9353868569E-03       4    6    1         0.5087793102E-01      0.5148926074E-01
          0                 9           2             4    6     1       0.2677281569E-03       4    6    1         0.1455582133E-01      0.1477206303E-01
          0                10           1             4    6     1       0.7667568117E-04       4    6    1         0.4166850672E-02      0.4242115428E-02

    ------------------------------------------------
       NWT REQUIRED           10 OUTER ITERATIONS 
       AND A TOTAL OF         19 INNER ITERATIONS.
    ------------------------------------------------

 NO OUTPUT CONTROL FOR STRESS PERIOD   21   TIME STEP   19
 
 SOLVING FOR HEAD 
                                                   Max.-Head-Change                         Max.-Flux-Residual
  Residual-Control   Outer-Iter.   Inner-Iter.     Column Row Layer    Maximum-Head-Change  Column Row Layer    Maximum-Flux-Residual          L2-NORM 
          0                 1           2             5    8     1       0.9525464563E+00       5    8    1         0.5246397142E+02      0.5384986282E+02
          0                 2           2             4    7     1      -0.1926406618E+01       4    6    1        -0.1010335920E+03      0.2351622744E+03
          0                 3           2             5    8     1      -0.7528073145E+00       5    8    1        -0.4304752774E+02      0.4810866308E+02
          0                 4           2             5    8     1      -0.4433612319E+00       5    8    1        -0.2506875380E+02      0.2511338070E+02
          0                 5           2             5    8     1      -0.1884112004E+00       5    8    1        -0.1066098496E+02      0.1066112122E+02
          0                 6           2             5    8     1       0.1283438068E-01       5    8    1         0.7466156838E+00      0.7466498137E+00
          0                 7           1             5    8     1      -0.5110611141E-03       5    8    1        -0.3056307146E-01      0.3056730784E-01
          0                 8           1             5    8     1       0.6315631088E-05       5    8    1         0.3882438227E-03      0.3883527914E-03

    ------------------------------------------------
       NWT REQUIRED            8 OUTER ITERATIONS 
       AND A TOTAL OF         14 INNER ITERATIONS.
    ------------------------------------------------

 NO OUTPUT CONTROL FOR STRESS PERIOD   21   TIME STEP   20
 
 SOLVING FOR HEAD 
                                                   Max.-Head-Change                         Max.-Flux-Residual
  Residual-Control   Outer-Iter.   Inner-Iter.     Column Row Layer    Maximum-Head-Change  Column Row Layer    Maximum-Flux-Residual          L2-NORM 
          0                 1           2             5    8     1       0.1070287494E+01       5    8    1         0.5840584770E+02      0.6404265022E+02
          0                 2           2             5    8     1       0.3061939980E+00       5    8    1         0.1658627356E+02      0.2256870346E+02
          0                 3           2             4    8     1       0.1423877210E+00       4    8    1         0.7668413165E+01      0.1018033853E+02
          0                 4           2             4    8     1       0.7791119690E-01       4    8    1         0.4218473013E+01      0.5031043291E+01
          0                 5           2             4    8     1       0.5380819293E-01       4    8    1         0.2903762335E+01      0.3605396938E+01
          0                 6           2             4    8     1       0.3163318640E-01       4    8    1         0.1713372783E+01      0.2036944325E+01
          0                 7           2             4    8     1       0.1857869221E-01       4    8    1         0.1006970856E+01      0.1185423169E+01
          0                 8           2             4    8     1       0.1090644885E-01       4    8    1         0.5913399569E+00      0.6914942934E+00
          0                 9           2             4    8     1       0.6401061033E-02       4    8    1         0.3471205205E+00      0.4035855727E+00
          0                10           2             4    8     1       0.3756391759E-02       4    8    1         0.2037214127E+00      0.2355947797E+00
                                                   Max.-Head-Change                         Max.-Flux-Residual
  Residual-Control   Outer-Iter.   Inner-Iter.     Column Row Layer    Maximum-Head-Change  Column Row Layer    Maximum-Flux-Residual          L2-NORM 
          0                11           2             4    8     1       0.2204266200E-02       4    8    1         0.1195499937E+00      0.1375483729E+00
          0                12           2             4    8     1       0.1293430095E-02       4    8    1         0.7015193243E-01      0.8031644477E-01
          0                13           2             4    8     1       0.7589500511E-03       4    8    1         0.4116393561E-01      0.4690447390E-01
          0                14           2             4    8     1       0.4453253746E-03       4    8    1         0.2415383699E-01      0.2739588606E-01
          0                15           2             4    8     1       0.2612985736E-03       4    8    1         0.1417260598E-01      0.1600358440E-01
          0                16           2             4    8     1       0.1533178305E-03       4    8    1         0.8315891329E-02      0.9349943741E-02
          0                17           1             4    8     1       0.8995901303E-04       4    8    1         0.4879372871E-02      0.5463353563E-02

    ------------------------------------------------
       NWT REQUIRED           17 OUTER ITERATIONS 
       AND A TOTAL OF         33 INNER ITERATIONS.
    ------------------------------------------------

 NO OUTPUT CONTROL FOR STRESS PERIOD   21   TIME STEP   21
 
 SOLVING FOR HEAD 
                                                   Max.-Head-Change                         Max.-Flux-Residual
  Residual-Control   Outer-Iter.   Inner-Iter.     Column Row Layer    Maximum-Head-Change  Column Row Layer    Maximum-Flux-Residual          L2-NORM 
          0                 1           2             5    6     1       0.1093588027E+01       5    6    1         0.5949123306E+02      0.9331484491E+02
          0                 2           2             5    8     1      -0.2144470830E+00       5    8    1        -0.1200999430E+02      0.1617238079E+02
          0                 3           2             4    8     1      -0.4327152443E-01       4    8    1        -0.2419000885E+01      0.3823790285E+01
          0                 4           2             4    6     1       0.2300383370E-01       4    6    1         0.1244325238E+01      0.1542368162E+01
          0                 5           2             4    6     1       0.1349040653E-01       4    6    1         0.7324720400E+00      0.7813880454E+00
          0                 6           2             4    6     1       0.7892455052E-02       4    6    1         0.4292774323E+00      0.4372442106E+00
          0                 7           2             4    6     1       0.4612294313E-02       4    6    1         0.2510705928E+00      0.2524393179E+00
          0                 8           2             4    6     1       0.2694002511E-02       4    6    1         0.1467035649E+00      0.1469729338E+00
          0                 9           2             4    6     1       0.1573168590E-02       4    6    1         0.8568282635E-01      0.8575130454E-01
          0                10           2             4    6     1       0.9185539778E-03       4    6    1         0.5003318760E-01      0.5005745986E-01
                                                   Max.-Head-Change                         Max.-Flux-Residual
  Residual-Control   Outer-Iter.   Inner-Iter.     Column Row Layer    Maximum-Head-Change  Column Row Layer    Maximum-Flux-Residual          L2-NORM 
          0                11           2             4    6     1       0.5363053455E-03       4    6    1         0.2921337015E-01      0.2922457563E-01
          0                12           2             4    6     1       0.3131190861E-03       4    6    1         0.1705636160E-01      0.1706230461E-01
          0                13           2             4    6     1       0.1828110387E-03       4    6    1         0.9958239777E-02      0.9961581187E-02
          0                14           1             4    6     1       0.1067316588E-03       4    6    1         0.5813998333E-02      0.5815920518E-02
          0                15           1             4    6     1       0.6231365227E-04       4    6    1         0.3394419417E-02      0.3395535103E-02

    ------------------------------------------------
       NWT REQUIRED           15 OUTER ITERATIONS 
       AND A TOTAL OF         28 INNER ITERATIONS.
    ------------------------------------------------

 NO OUTPUT CONTROL FOR STRESS PERIOD   21   TIME STEP   22
 
 SOLVING FOR HEAD 
                                                   Max.-Head-Change                         Max.-Flux-Residual
  Residual-Control   Outer-Iter.   Inner-Iter.     Column Row Layer    Maximum-Head-Change  Column Row Layer    Maximum-Flux-Residual          L2-NORM 
          0                 1           2             5    8     1       0.8466966137E+00       5    8    1         0.4659957371E+02      0.5059187071E+02
          0                 2           2             4    7     1      -0.1922900709E+01       4    7    1        -0.1005759211E+03      0.2334245072E+03
          0                 3           2             5    8     1      -0.7891425199E+00       5    8    1        -0.4493906069E+02      0.5163926379E+02
          0                 4           2             5    8     1      -0.4377486725E+00       5    8    1        -0.2476058565E+02      0.2482113657E+02
          0                 5           2             5    8     1       0.2981086099E-01       5    8    1         0.1734229553E+01      0.1735820102E+01
          0                 6           1             5    8     1      -0.1186795717E-02       5    8    1        -0.7097743009E-01      0.7100063231E-01
          0                 7           1             5    8     1       0.1465538384E-04       5    8    1         0.9007508786E-03      0.9009810719E-03

    ------------------------------------------------
       NWT REQUIRED            7 OUTER ITERATIONS 
       AND A TOTAL OF         12 INNER ITERATIONS.
    ------------------------------------------------

 NO OUTPUT CONTROL FOR STRESS PERIOD   21   TIME STEP   23
 
 SOLVING FOR HEAD 
                                                   Max.-Head-Change                         Max.-Flux-Residual
  Residual-Control   Outer-Iter.   Inner-Iter.     Column Row Layer    Maximum-Head-Change  Column Row Layer    Maximum-Flux-Residual          L2-NORM 
          0                 1           2             5    8     1       0.1082665625E+01       5    8    1         0.5929089788E+02      0.6186890230E+02
          0                 2           2             5    8     1       0.3066808584E+00       5    8    1         0.1672274564E+02      0.1972456205E+02
          0                 3           2             4    8     1       0.1089614039E+00       4    8    1         0.5858094560E+01      0.7800989120E+01
          0                 4           2             4    8     1       0.5819322231E-01       4    8    1         0.3154416384E+01      0.3496319691E+01
          0                 5           2             4    8     1       0.4215552136E-01       4    8    1         0.2275704377E+01      0.2694415964E+01
          0                 6           2             4    8     1       0.2473593913E-01       4    8    1         0.1342143734E+01      0.1477176866E+01
          0                 7           2             4    8     1       0.1449287268E-01       4    8    1         0.7871860423E+00      0.8575440340E+00
          0                 8           2             4    8     1       0.8485359748E-02       4    8    1         0.4611296121E+00      0.5000818050E+00
          0                 9           2             4    8     1       0.4966341087E-02       4    8    1         0.2699603597E+00      0.2918803512E+00
          0                10           2             4    8     1       0.2906230702E-02       4    8    1         0.1579965567E+00      0.1703896294E+00
                                                   Max.-Head-Change                         Max.-Flux-Residual
  Residual-Control   Outer-Iter.   Inner-Iter.     Column Row Layer    Maximum-Head-Change  Column Row Layer    Maximum-Flux-Residual          L2-NORM 
          0                11           2             4    8     1       0.1700542881E-02       4    8    1         0.9245536411E-01      0.9947261646E-01
          0                12           2             4    8     1       0.9950081013E-03       4    8    1         0.5409849127E-01      0.5807405862E-01
          0                13           2             4    8     1       0.5821777453E-03       4    8    1         0.3165351302E-01      0.3390640944E-01
          0                14           2             4    8     1       0.3406266242E-03       4    8    1         0.1852037110E-01      0.1979723147E-01
          0                15           2             4    8     1       0.1992955266E-03       4    8    1         0.1083607405E-01      0.1155981823E-01
          0                16           2             4    8     1       0.1166039974E-03       4    8    1         0.6340017496E-02      0.6750275807E-02
          0                17           1             4    8     1       0.6822236010E-04       4    8    1         0.3709419895E-02      0.3941991464E-02

    ------------------------------------------------
       NWT REQUIRED           17 OUTER ITERATIONS 
       AND A TOTAL OF         33 INNER ITERATIONS.
    ------------------------------------------------

 NO OUTPUT CONTROL FOR STRESS PERIOD   21   TIME STEP   24
 
 SOLVING FOR HEAD 
                                                   Max.-Head-Change                         Max.-Flux-Residual
  Residual-Control   Outer-Iter.   Inner-Iter.     Column Row Layer    Maximum-Head-Change  Column Row Layer    Maximum-Flux-Residual          L2-NORM 
          0                 1           2             5    6     1       0.1111766076E+01       5    6    1         0.5999881629E+02      0.1050998842E+03
          0                 2           2             5    8     1      -0.2096835331E+00       5    8    1        -0.1187137411E+02      0.1531380348E+02
          0                 3           2             4    6     1       0.6792950688E-01       4    6    1         0.3668892298E+01      0.4415191490E+01
          0                 4           2             4    6     1       0.3984949513E-01       4    6    1         0.2163496141E+01      0.2260743483E+01
          0                 5           2             4    6     1       0.2329929804E-01       4    6    1         0.1268063365E+01      0.1284101248E+01
          0                 6           2             4    6     1       0.1360089563E-01       4    6    1         0.7411049775E+00      0.7441342314E+00
          0                 7           2             4    6     1       0.7933340121E-02       4    6    1         0.4325306187E+00      0.4332321647E+00
          0                 8           2             4    6     1       0.4625746685E-02       4    6    1         0.2522685298E+00      0.2524803576E+00
          0                 9           2             4    6     1       0.2696675466E-02       4    6    1         0.1470849847E+00      0.1471676295E+00
          0                10           2             4    6     1       0.1571944564E-02       4    6    1         0.8574429626E-01      0.8578306964E-01
                                                   Max.-Head-Change                         Max.-Flux-Residual
  Residual-Control   Outer-Iter.   Inner-Iter.     Column Row Layer    Maximum-Head-Change  Column Row Layer    Maximum-Flux-Residual          L2-NORM 
          0                11           2             4    6     1       0.9162778387E-03       4    6    1         0.4998146334E-01      0.5000171581E-01
          0                12           2             4    6     1       0.5340822172E-03       4    6    1         0.2913376354E-01      0.2914494936E-01
          0                13           2             4    6     1       0.3113039803E-03       4    6    1         0.1698151358E-01      0.1698786509E-01
          0                14           2             4    6     1       0.1814508900E-03       4    6    1         0.9898112963E-02      0.9901768508E-02
          0                15           1             4    6     1       0.1057626929E-03       4    6    1         0.5769345818E-02      0.5771463592E-02
          0                16           1             4    6     1       0.6164607038E-04       4    6    1         0.3362790748E-02      0.3364021680E-02

    ------------------------------------------------
       NWT REQUIRED           16 OUTER ITERATIONS 
       AND A TOTAL OF         30 INNER ITERATIONS.
    ------------------------------------------------

 NO OUTPUT CONTROL FOR STRESS PERIOD   21   TIME STEP   25
 
 SOLVING FOR HEAD 
                                                   Max.-Head-Change                         Max.-Flux-Residual
  Residual-Control   Outer-Iter.   Inner-Iter.     Column Row Layer    Maximum-Head-Change  Column Row Layer    Maximum-Flux-Residual          L2-NORM 
          0                 1           2             5    8     1       0.7515135284E+00       5    8    1         0.4131318000E+02      0.5407577724E+02
          0                 2           2             4    7     1      -0.1917912862E+01       4    7    1        -0.1003696921E+03      0.2322091357E+03
          0                 3           2             5    8     1      -0.8214690458E+00       5    8    1        -0.4676359931E+02      0.5677605972E+02
          0                 4           2             5    8     1      -0.2327391464E+00       5    8    1        -0.1317334634E+02      0.1578558622E+02
          0                 5           2             4    6     1      -0.3613220321E-01       4    6    1        -0.2027643934E+01      0.2228118779E+01
          0                 6           2             4    6     1       0.2461465452E-02       4    6    1         0.1419988343E+00      0.1469625282E+00
          0                 7           1             4    6     1      -0.9801396773E-04       4    6    1        -0.5812179647E-02      0.5833092878E-02

    ------------------------------------------------
       NWT REQUIRED            7 OUTER ITERATIONS 
       AND A TOTAL OF         13 INNER ITERATIONS.
    ------------------------------------------------

 NO OUTPUT CONTROL FOR STRESS PERIOD   21   TIME STEP   26
 
 SOLVING FOR HEAD 
                                                   Max.-Head-Change                         Max.-Flux-Residual
  Residual-Control   Outer-Iter.   Inner-Iter.     Column Row Layer    Maximum-Head-Change  Column Row Layer    Maximum-Flux-Residual          L2-NORM 
          0                 1           2             5    8     1       0.1097341406E+01       5    8    1         0.6032988182E+02      0.6115212375E+02
          0                 2           2             5    8     1       0.3084142417E+00       5    8    1         0.1693403571E+02      0.1789156106E+02
          0                 3           2             5    8     1       0.8635027823E-01       5    8    1         0.4713744319E+01      0.5852486312E+01
          0                 4           2             4    8     1       0.3247364126E-01       4    8    1         0.1755855152E+01      0.2127167005E+01
          0                 5           2             4    8     1       0.2710873251E-01       4    8    1         0.1457526120E+01      0.1828569632E+01
          0                 6           2             4    8     1       0.1593108739E-01       4    8    1         0.8634889584E+00      0.8963037654E+00
          0                 7           2             4    8     1       0.9339826103E-02       4    8    1         0.5070837281E+00      0.5123811343E+00
          0                 8           2             4    8     1       0.5469332734E-02       4    8    1         0.2971966024E+00      0.2981577503E+00
          0                 9           2             4    8     1       0.3201043852E-02       4    8    1         0.1740112116E+00      0.1742171671E+00
          0                10           2             4    8     1       0.1872986683E-02       4    8    1         0.1018368063E+00      0.1018924307E+00
                                                   Max.-Head-Change                         Max.-Flux-Residual
  Residual-Control   Outer-Iter.   Inner-Iter.     Column Row Layer    Maximum-Head-Change  Column Row Layer    Maximum-Flux-Residual          L2-NORM 
          0                11           2             4    8     1       0.1095778982E-02       4    8    1         0.5958454082E-01      0.5960399988E-01
          0                12           2             4    8     1       0.6410397294E-03       4    8    1         0.3485901038E-01      0.3486748074E-01
          0                13           2             4    8     1       0.3750026187E-03       4    8    1         0.2039265484E-01      0.2039690644E-01
          0                14           2             4    8     1       0.2193701796E-03       4    8    1         0.1192948128E-01      0.1193178840E-01
          0                15           2             4    8     1       0.1283269779E-03       4    8    1         0.6978532459E-02      0.6979834251E-02
          0                16           1             4    8     1       0.7506836193E-04       4    8    1         0.4082292525E-02      0.4083041063E-02

    ------------------------------------------------
       NWT REQUIRED           16 OUTER ITERATIONS 
       AND A TOTAL OF         31 INNER ITERATIONS.
    ------------------------------------------------

 NO OUTPUT CONTROL FOR STRESS PERIOD   21   TIME STEP   27
 
 SOLVING FOR HEAD 
                                                   Max.-Head-Change                         Max.-Flux-Residual
  Residual-Control   Outer-Iter.   Inner-Iter.     Column Row Layer    Maximum-Head-Change  Column Row Layer    Maximum-Flux-Residual          L2-NORM 
          0                 1           2             5    7     1       0.1151527963E+01       5    7    1         0.6174899744E+02      0.1171521335E+03
          0                 2           2             5    8     1      -0.2050226080E+00       5    8    1        -0.1169794822E+02      0.1674815841E+02
          0                 3           2             4    6     1       0.8894995722E-01       4    6    1         0.4811569791E+01      0.5596022128E+01
          0                 4           2             4    6     1       0.5213760793E-01       4    6    1         0.2832330690E+01      0.2934814008E+01
          0                 5           2             4    6     1       0.3047535665E-01       4    6    1         0.1658957577E+01      0.1676274937E+01
          0                 6           2             4    6     1       0.1778902506E-01       4    6    1         0.9693502903E+00      0.9727414374E+00
          0                 7           2             4    6     1       0.1037676440E-01       4    6    1         0.5657292655E+00      0.5665553354E+00
          0                 8           2             4    6     1       0.6050991049E-02       4    6    1         0.3299751291E+00      0.3302373217E+00
          0                 9           2             4    6     1       0.3527923068E-02       4    6    1         0.1924098553E+00      0.1925155695E+00
          0                10           2             4    6     1       0.2056724055E-02       4    6    1         0.1121787952E+00      0.1122291345E+00
                                                   Max.-Head-Change                         Max.-Flux-Residual
  Residual-Control   Outer-Iter.   Inner-Iter.     Column Row Layer    Maximum-Head-Change  Column Row Layer    Maximum-Flux-Residual          L2-NORM 
          0                11           2             4    6     1       0.1198989151E-02       4    6    1         0.6539780381E-01      0.6542422118E-01
          0                12           2             4    6     1       0.6989493394E-03       4    6    1         0.3812414786E-01      0.3813874909E-01
          0                13           2             4    6     1       0.4074476193E-03       4    6    1         0.2222437093E-01      0.2223265844E-01
          0                14           2             4    6     1       0.2375175501E-03       4    6    1         0.1295552482E-01      0.1296029206E-01
          0                15           2             4    6     1       0.1384581582E-03       4    6    1         0.7552289996E-02      0.7555050645E-02
          0                16           1             4    6     1       0.8071251168E-04       4    6    1         0.4402520304E-02      0.4404124292E-02

    ------------------------------------------------
       NWT REQUIRED           16 OUTER ITERATIONS 
       AND A TOTAL OF         31 INNER ITERATIONS.
    ------------------------------------------------

 NO OUTPUT CONTROL FOR STRESS PERIOD   21   TIME STEP   28
 
 SOLVING FOR HEAD 
                                                   Max.-Head-Change                         Max.-Flux-Residual
  Residual-Control   Outer-Iter.   Inner-Iter.     Column Row Layer    Maximum-Head-Change  Column Row Layer    Maximum-Flux-Residual          L2-NORM 
          0                 1           2             4    6     1       0.8553616251E+00       4    6    1         0.4667050132E+02      0.5949101306E+02
          0                 2           2             4    7     1      -0.1912663775E+01       4    7    1        -0.1001309212E+03      0.2314886878E+03
          0                 3           2             5    8     1      -0.8507570809E+00       5    8    1        -0.4841766997E+02      0.5710120412E+02
          0                 4           2             4    6     1      -0.1489137907E+00       4    6    1        -0.8328269790E+01      0.8730455470E+01
          0                 5           2             4    6     1      -0.4516786734E-01       4    6    1        -0.2532491737E+01      0.2538807850E+01
          0                 6           2             4    6     1      -0.1375605663E-01       4    6    1        -0.7711894953E+00      0.7712286476E+00
          0                 7           2             4    6     1      -0.4189363036E-02       4    6    1        -0.2348659802E+00      0.2348670704E+00
          0                 8           2             4    6     1      -0.1275828960E-02       4    6    1        -0.7152516258E-01      0.7152550381E-01
          0                 9           2             4    6     1      -0.3885326774E-03       4    6    1        -0.2178161534E-01      0.2178171855E-01
          0                10           2             4    6     1      -0.1183186888E-03       4    6    1        -0.6633027083E-02      0.6633058556E-02
          0                11           1             4    6     1      -0.3603046501E-04       4    6    1        -0.2019873782E-02      0.2019883404E-02

    ------------------------------------------------
       NWT REQUIRED           11 OUTER ITERATIONS 
       AND A TOTAL OF         21 INNER ITERATIONS.
    ------------------------------------------------

 NO OUTPUT CONTROL FOR STRESS PERIOD   21   TIME STEP   29
 
 SOLVING FOR HEAD 
                                                   Max.-Head-Change                         Max.-Flux-Residual
  Residual-Control   Outer-Iter.   Inner-Iter.     Column Row Layer    Maximum-Head-Change  Column Row Layer    Maximum-Flux-Residual          L2-NORM 
          0                 1           2             5    8     1       0.1113115108E+01       5    8    1         0.6128145890E+02      0.6150772745E+02
          0                 2           2             5    8     1       0.3107355633E+00       5    8    1         0.1711554466E+02      0.1726470120E+02
          0                 3           2             5    8     1       0.8632309001E-01       5    8    1         0.4744297873E+01      0.4931899408E+01
          0                 4           2             5    8     1       0.1852888741E-01       5    8    1         0.1019840305E+01      0.1293483503E+01
          0                 5           2             4    8     1       0.1371006682E-01       4    8    1         0.7287403291E+00      0.1321138996E+01
          0                 6           2             4    8     1       0.8094718759E-02       4    8    1         0.4372729518E+00      0.4970720854E+00
          0                 7           2             4    8     1       0.4756456568E-02       4    8    1         0.2578032960E+00      0.2672384918E+00
          0                 8           2             4    8     1       0.2788542637E-02       4    8    1         0.1513955678E+00      0.1529634625E+00
          0                 9           2             4    8     1       0.1633049345E-02       4    8    1         0.8873267915E-01      0.8901967606E-01
          0                10           2             4    8     1       0.9558626578E-03       4    8    1         0.5195731407E-01      0.5201890603E-01
                                                   Max.-Head-Change                         Max.-Flux-Residual
  Residual-Control   Outer-Iter.   Inner-Iter.     Column Row Layer    Maximum-Head-Change  Column Row Layer    Maximum-Flux-Residual          L2-NORM 
          0                11           2             4    8     1       0.5593497209E-03       4    8    1         0.3040987803E-01      0.3042644736E-01
          0                12           2             4    8     1       0.3272799645E-03       4    8    1         0.1779463569E-01      0.1780041089E-01
          0                13           2             4    8     1       0.1914831152E-03       4    8    1         0.1041162756E-01      0.1041414044E-01
          0                14           2             4    8     1       0.1120287726E-03       4    8    1         0.6091532839E-02      0.6092796040E-02
          0                15           1             4    8     1       0.6554248805E-04       4    8    1         0.3563889260E-02      0.3564575852E-02

    ------------------------------------------------
       NWT REQUIRED           15 OUTER ITERATIONS 
       AND A TOTAL OF         29 INNER ITERATIONS.
    ------------------------------------------------

 NO OUTPUT CONTROL FOR STRESS PERIOD   21   TIME STEP   30



 STREAM LISTING     PERIOD     21   STEP       30

 LAYER ROW COL. STREAM  RCH.  FLOW INTO     FLOW TO   FLOW OUT OF   OVRLND.     DIRECT     STREAM       STREAM     STREAM     STREAM   STREAMBED  STREAMBED
                SEG.NO.  NO.  STRM. RCH.    AQUIFER    STRM. RCH.    RUNOFF     PRECIP       ET          HEAD       DEPTH      WIDTH   CONDCTNC.   GRADIENT

   1    1    1     1     1    2.7750E+01  2.5751E-01   2.7493E+01  0.000E+00  0.000E+00  0.000E+00  1.09427E+03  1.218E+00  1.357E+01  6.105E-02  1.406E+00
   1    2    2     1     2    2.7493E+01  3.9833E-01   2.7095E+01  0.000E+00  0.000E+00  0.000E+00  1.08927E+03  1.213E+00  1.351E+01  9.454E-02  1.404E+00
   1    3    3     1     3    2.7095E+01  3.3924E-01   2.6755E+01  0.000E+00  0.000E+00  0.000E+00  1.08363E+03  1.208E+00  1.344E+01  8.062E-02  1.403E+00
   1    3    4     1     4    2.6755E+01  3.1201E-01   2.6443E+01  0.000E+00  0.000E+00  0.000E+00  1.07861E+03  1.203E+00  1.337E+01  7.423E-02  1.401E+00
   1    4    5     2     1    2.4443E+01  3.2655E-01   2.4117E+01  0.000E+00  0.000E+00  0.000E+00  1.07312E+03  1.187E+00  1.200E+01  7.800E-02  1.396E+00
   1    5    6     2     2    2.4117E+01  2.5069E-01   2.3866E+01  0.000E+00  0.000E+00  0.000E+00  1.06769E+03  1.178E+00  1.200E+01  6.000E-02  1.393E+00
   1    6    6     2     3    2.3866E+01  2.5024E-01   2.3616E+01  0.000E+00  0.000E+00  0.000E+00  1.06296E+03  1.171E+00  1.200E+01  6.000E-02  1.390E+00
   1    7    6     2     4    2.3616E+01  2.4980E-01   2.3366E+01  0.000E+00  0.000E+00  0.000E+00  1.05824E+03  1.163E+00  1.200E+01  6.000E-02  1.388E+00
   1    8    6     2     5    2.3366E+01  2.4935E-01   2.3117E+01  0.000E+00  0.000E+00  0.000E+00  1.05351E+03  1.156E+00  1.200E+01  6.000E-02  1.385E+00
   1    3    5     3     1    2.0000E+00  2.8252E-01   1.7175E+00  0.000E+00  0.000E+00  0.000E+00  1.07555E+03  1.909E+00  9.636E+00  7.227E-02  1.955E+00
   1    3    6     3     2    1.7175E+00  2.4905E-01   1.4684E+00  0.000E+00  0.000E+00  0.000E+00  1.07264E+03  1.727E+00  8.909E+00  6.682E-02  1.864E+00
   1    3    7     3     3    1.4684E+00  1.9718E-01   1.2712E+00  0.000E+00  0.000E+00  0.000E+00  1.06987E+03  1.555E+00  8.218E+00  5.547E-02  1.777E+00
   1    4    8     3     4    1.2712E+00  2.2567E-01   1.0456E+00  0.000E+00  0.000E+00  0.000E+00  1.06682E+03  1.364E+00  7.455E+00  6.709E-02  1.682E+00
   1    5    8     3     5    1.0456E+00  1.5790E-01   8.8768E-01  0.000E+00  0.000E+00  0.000E+00  1.06362E+03  1.164E+00  6.655E+00  4.991E-02  1.582E+00
   1    6    8     3     6    8.8768E-01  5.5980E-02   8.3170E-01  0.000E+00  0.000E+00  0.000E+00  1.06158E+03  1.036E+00  6.145E+00  1.844E-02  1.518E+00
   1    5   10     4     1    1.0000E+01  9.0919E-02   9.9091E+00  0.000E+00  0.000E+00  0.000E+00  1.07836E+03  6.368E-01  1.000E+01  2.500E-02  1.212E+00
   1    5    9     4     2    9.9091E+00  1.8158E-01   9.7275E+00  0.000E+00  0.000E+00  0.000E+00  1.07154E+03  6.315E-01  1.000E+01  5.000E-02  1.211E+00
   1    6    8     4     3    9.7275E+00  1.2689E-01   9.6006E+00  0.000E+00  0.000E+00  0.000E+00  1.06381E+03  6.256E-01  1.000E+01  3.500E-02  1.209E+00
   1    6    8     5     1    1.0432E+01  2.2686E-01   1.0205E+01  0.000E+00  0.000E+00  0.000E+00  1.05868E+03  6.790E-01  1.542E+01  6.166E-02  1.226E+00
   1    7    7     5     2    1.0205E+01  2.7894E-01   9.9265E+00  0.000E+00  0.000E+00  0.000E+00  1.05417E+03  6.732E-01  1.519E+01  7.594E-02  1.224E+00
   1    8    7     5     3    9.9265E+00  1.9221E-01   9.7343E+00  0.000E+00  0.000E+00  0.000E+00  1.04992E+03  6.676E-01  1.497E+01  5.241E-02  1.223E+00
   1    8    6     5     4    9.7343E+00  1.3577E-01   9.5985E+00  0.000E+00  0.000E+00  0.000E+00  1.04691E+03  6.637E-01  1.482E+01  3.706E-02  1.221E+00
   1    9    6     6     1    2.9130E+01  2.6009E-01   2.8869E+01  0.000E+00  0.000E+00  0.000E+00  1.04406E+03  1.335E+00  1.200E+01  6.000E-02  1.445E+00
   1   10    7     6     2    2.8869E+01  2.5965E-01   2.8610E+01  0.000E+00  0.000E+00  0.000E+00  1.03951E+03  1.328E+00  1.200E+01  6.000E-02  1.443E+00
   1   11    7     6     3    2.8610E+01  2.5922E-01   2.8351E+01  0.000E+00  0.000E+00  0.000E+00  1.03496E+03  1.320E+00  1.200E+01  6.000E-02  1.440E+00
   1   12    7     6     4    2.8351E+01  2.5879E-01   2.8092E+01  0.000E+00  0.000E+00  0.000E+00  1.03040E+03  1.313E+00  1.200E+01  6.000E-02  1.438E+00
   1   13    7     6     5    2.8092E+01  8.7978E-03   2.8083E+01  0.000E+00  0.000E+00  0.000E+00  1.02722E+03  1.309E+00  1.200E+01  2.400E-02  1.222E-01
   1   14    9     7     1    1.5000E+02  1.3482E+00   1.4865E+02  0.000E+00  0.000E+00  0.000E+00  1.03987E+03  2.288E+00  5.529E+01  5.593E-01  8.035E-01
   1   13    8     7     2    1.4865E+02  1.8945E+00   1.4676E+02  0.000E+00  0.000E+00  0.000E+00  1.03478E+03  2.279E+00  5.526E+01  6.148E-01  1.027E+00
   1   13    7     7     3    1.4676E+02  1.5843E+00   1.4517E+02  0.000E+00  0.000E+00  0.000E+00  1.02969E+03  2.270E+00  5.521E+01  5.584E-01  9.457E-01
   1   13    6     8     1    1.7326E+02  1.0436E+00   1.7221E+02  0.000E+00  0.000E+00  0.000E+00  1.02484E+03  2.970E+00  4.306E+01  4.388E-01  7.927E-01
   1   13    5     8     2    1.7221E+02  2.8503E-01   1.7193E+02  0.000E+00  0.000E+00  0.000E+00  1.01859E+03  2.966E+00  4.300E+01  4.382E-01  2.168E-01
   1   13    4     8     3    1.7193E+02 -1.8924E+00   1.7382E+02  0.000E+00  0.000E+00  0.000E+00  1.01235E+03  2.971E+00  4.308E+01  4.390E+00 -1.437E-01
   1   13    3     8     4    1.7382E+02 -3.2865E+00   1.7711E+02  0.000E+00  0.000E+00  0.000E+00  1.00611E+03  2.987E+00  4.332E+01  4.414E+00 -2.482E-01
   1   13    2     8     5    1.7711E+02 -2.2839E+00   1.7939E+02  0.000E+00  0.000E+00  0.000E+00  9.99880E+02  3.005E+00  4.357E+01  4.440E+00 -1.715E-01
   1   13    1     8     6    1.7939E+02 -1.8278E+00   1.8122E+02  0.000E+00  0.000E+00  0.000E+00  9.94893E+02  3.018E+00  4.376E+01  2.676E+00 -2.277E-01
   1    8    6     9     1    3.5857E+00  0.0000E+00   3.5857E+00  0.000E+00  0.000E+00  0.000E+00  1.07997E+03  1.225E+00  4.000E+00  0.000E+00  1.408E+00
   1    8    5     9     2    3.5857E+00  0.0000E+00   3.5857E+00  0.000E+00  0.000E+00  0.000E+00  1.07947E+03  1.225E+00  4.000E+00  0.000E+00  1.408E+00





UNSATURATED ZONE PACKAGE VOLUMETRIC BUDGET FOR  TIME STEP    30 STRESS PERIOD   21
  ------------------------------------------------------------------------------



     CUMULATIVE VOLUMES      L**3       RATES FOR THIS TIME STEP      L**3/T
     ------------------                 ------------------------

           IN:                                      IN:
           ---                                      ---
        INFILTRATION =  5727424285.5884          INFILTRATION =           4.4333

          OUT:                                     OUT:
          ----                                     ----
              UZF ET =   824921850.4256                UZF ET =          49.9417
        UZF RECHARGE =  4239243232.4668          UZF RECHARGE =         100.3855

            IN - OUT =   663259202.6960              IN - OUT =        -145.8939

          STORAGE:                                 STORAGE:
          --------                                 --------
      STORAGE CHANGE =   664054937.8989        STORAGE CHANGE =        -145.8950

 PERCENT DISCREPANCY IS DIFFERENCE BETWEEN IN-OUT MINUS CHANGE IN STORAGE
 DIVIDED BY THE AVERAGE OF IN AND OUT TIMES 100

 PERCENT DISCREPANCY =          -0.00     PERCENT DISCREPANCY =           0.00






1
  VOLUMETRIC BUDGET FOR AGRICULTURAL FIELDS AT  END OF TIME STEP   30, STRESS PERIOD  21
  ------------------------------------------------------------------------------

     CUMULATIVE VOLUMES      L**3       RATES FOR THIS TIME STEP      L**3/T
     ------------------                 ------------------------

           IN:                                      IN:
           ---                                      ---
               AG WELLS  =  5113732096.0000                 AG WELLS  =           0.0000
      DIVERSION SEGMENTS =   569053824.0000        DIVERSION SEGMENTS =           3.5857
       IRRIGATION PONDS  =           0.0000         IRRIGATION PONDS  =           0.0000
           GW IRRIGATION =           0.0000             GW IRRIGATION =           0.0000
           SW IRRIGATION =           0.0000             SW IRRIGATION =           0.0000
        SYSTEM LOSSES GW =           0.0000          SYSTEM LOSSES GW =           0.0000
        SYSTEM LOSSES SW =           0.0000          SYSTEM LOSSES SW =           0.0000

                TOTAL IN =  5682785792.0000                  TOTAL IN =           3.5857

          OUT:                                     OUT:
          ----                                     ----
               AG WELLS  =           0.0000                 AG WELLS  =           0.0000
      DIVERSION SEGMENTS =           0.0000        DIVERSION SEGMENTS =           0.0000
       IRRIGATION PONDS  =           0.0000         IRRIGATION PONDS  =           0.0000
           GW IRRIGATION =  5113732096.0000             GW IRRIGATION =           0.0000
           SW IRRIGATION =   569065472.0000             SW IRRIGATION =           3.5858
        SYSTEM LOSSES GW =           0.0000          SYSTEM LOSSES GW =           0.0000
        SYSTEM LOSSES SW =           0.0000          SYSTEM LOSSES SW =           0.0000

               TOTAL OUT =  5682797568.0000                 TOTAL OUT =           3.5858

                IN - OUT =      -11776.0000                  IN - OUT =      -7.1526E-05

     PERCENT DISCREPANCY =          -0.00         PERCENT DISCREPANCY =          -0.00



1
  VOLUMETRIC BUDGET FOR ENTIRE MODEL AT END OF TIME STEP   30, STRESS PERIOD  21
  ------------------------------------------------------------------------------

     CUMULATIVE VOLUMES      L**3       RATES FOR THIS TIME STEP      L**3/T
     ------------------                 ------------------------

           IN:                                      IN:
           ---                                      ---
             STORAGE     =  4422769664.0000               STORAGE     =          12.4592
       CONSTANT HEAD     =           0.0000         CONSTANT HEAD     =           0.0000
     HEAD DEP BOUNDS     =    15064502.0000       HEAD DEP BOUNDS     =           0.2866
      STREAM LEAKAGE     =   642998016.0000        STREAM LEAKAGE     =          12.2374
        UZF RECHARGE     =  4239242496.0000          UZF RECHARGE     =         100.3855
               GW ET     =           0.0000                 GW ET     =           0.0000
     SURFACE LEAKAGE     =           0.0000       SURFACE LEAKAGE     =           0.0000
           AG WELLS      =           0.0000             AG WELLS      =           0.0000

                TOTAL IN =  9320074240.0000                  TOTAL IN =         125.3686

          OUT:                                     OUT:
          ----                                     ----
             STORAGE     =  3636308224.0000               STORAGE     =         115.7879
       CONSTANT HEAD     =           0.0000         CONSTANT HEAD     =           0.0000
     HEAD DEP BOUNDS     =    15327550.0000       HEAD DEP BOUNDS     =           0.2879
      STREAM LEAKAGE     =   553321280.0000        STREAM LEAKAGE     =           9.2906
        UZF RECHARGE     =           0.0000          UZF RECHARGE     =           0.0000
               GW ET     =     1320838.1250                 GW ET     =           0.0000
     SURFACE LEAKAGE     =           0.0000       SURFACE LEAKAGE     =           0.0000
           AG WELLS      =  5113732096.0000             AG WELLS      =           0.0000

               TOTAL OUT =  9320009728.0000                 TOTAL OUT =         125.3665

                IN - OUT =       64512.0000                  IN - OUT =       2.1439E-03

     PERCENT DISCREPANCY =           0.00         PERCENT DISCREPANCY =           0.00






         TIME SUMMARY AT END OF TIME STEP   30 IN STRESS PERIOD   21
                    SECONDS     MINUTES      HOURS       DAYS        YEARS
                    -----------------------------------------------------------
   TIME STEP LENGTH  87667.      1461.1      24.352      1.0147     2.77799E-03
 STRESS PERIOD TIME 2.63000E+06  43833.      730.56      30.440     8.33397E-02
         TOTAL TIME 5.26866E+07 8.78110E+05  14635.      609.80      1.6695    
1
1
                            STRESS PERIOD NO.   22, LENGTH =   2630000.    
                            -----------------------------------------------

                              NUMBER OF TIME STEPS =    30

                               MULTIPLIER FOR DELT =     1.000

                            INITIAL TIME STEP SIZE =   87666.66    

 REUSING NON-PARAMETER GHB CELLS FROM LAST STRESS PERIOD

      2 GHB CELLS

 REUSING STREAM SEGMENT DATA FROM LAST STRESS PERIOD



            AREAL INFILTRATION RATE
 READING ON UNIT   19 WITH FORMAT: (FREE)              

            1           2           3           4           5           6           7           8           9          10
 ........................................................................................................................
   1   1.0000E-10  2.0000E-10   0.000       0.000       0.000       0.000       0.000       0.000       0.000       0.000    
   2   2.0000E-10  1.0000E-10  2.0000E-10   0.000       0.000      8.0000E-10  8.0000E-10  5.0000E-10   0.000       0.000    
   3    0.000      5.0000E-10  1.0000E-10  1.0000E-10  8.0000E-10  8.0000E-10  5.0000E-10  5.0000E-10   0.000       0.000    
   4   8.0000E-10  5.0000E-10  1.0000E-10  1.0000E-10  1.0000E-10  1.0000E-10  1.0000E-10  1.0000E-10  2.0000E-10   0.000    
   5   8.0000E-10  5.0000E-10  1.0000E-10  1.0000E-10  1.0000E-10  1.0000E-10  1.0000E-10  1.0000E-10  1.0000E-10  1.0000E-10
   6   8.0000E-10  5.0000E-10  5.0000E-10  2.0000E-10  2.0000E-10  1.0000E-10  1.0000E-10  1.0000E-10  1.0000E-10  5.0000E-10
   7   8.0000E-10  5.0000E-10  5.0000E-10  2.0000E-10  2.0000E-10  1.0000E-10  1.0000E-10  2.0000E-10  2.0000E-10   0.000    
   8    0.000      5.0000E-10  5.0000E-10  2.0000E-10  2.0000E-10  1.0000E-10  1.0000E-10  2.0000E-10  5.0000E-10   0.000    
   9    0.000      5.0000E-10  5.0000E-10  2.0000E-10  2.0000E-10  1.0000E-10  1.0000E-10  2.0000E-10  5.0000E-10   0.000    
  10    0.000      5.0000E-10  5.0000E-10  2.0000E-10  2.0000E-10  1.0000E-10  1.0000E-10  2.0000E-10  5.0000E-10  8.0000E-10
  11    0.000      1.0000E-10  1.0000E-10  1.0000E-10  1.0000E-10  1.0000E-10  1.0000E-10  2.0000E-10  5.0000E-10   0.000    
  12   1.0000E-10  1.0000E-10  1.0000E-10  1.0000E-10  1.0000E-10  1.0000E-10  1.0000E-10  1.0000E-10  2.0000E-10   0.000    
  13   1.0000E-10  1.0000E-10  2.0000E-10  2.0000E-10  2.0000E-10  2.0000E-10  2.0000E-10  1.0000E-10  1.0000E-10   0.000    
  14    0.000      2.0000E-10  5.0000E-10  5.0000E-10  5.0000E-10  5.0000E-10  5.0000E-10  2.0000E-10  1.0000E-10   0.000    
  15    0.000       0.000      8.0000E-10  8.0000E-10  8.0000E-10  8.0000E-10   0.000       0.000       0.000       0.000    

                  ET RATE =  7.500000E-08

 USING ET EXTINCTION DEPTH FROM PREVIOUS STRESS PERIOD. CURRENT PERIOD IS:      22

 USING EXTINCTION WATER CONTENT FROM PREVIOUS STRESS PERIOD. CURRENT PERIOD IS:      22

 USING AIR ENTRY PRESSURE FROM PREVIOUS STRESS PERIOD. CURRENT PERIOD IS:      22

 USING ROOT PRESSURE HEAD FROM PREVIOUS STRESS PERIOD. CURRENT PERIOD IS:      22

 USING ROOT ACTIVITY FROM PREVIOUS STRESS PERIOD. CURRENT PERIOD IS:      22

 PROCESSING AG STRESS PERIOD DATA

 READING AG STRESS PERIOD DATA

 READING IRRIGATION SEGMENT

 READING IRRIGATION WELL

 READING SUPPLEMENTAL WELL

 NO IRRPOND OR REUSING IRRPOND DATA FROM LAST STRESS PERIOD

 END PROCESSING AG STRESS PERIOD DATA OPTIONS
 
 SOLVING FOR HEAD 
                                                   Max.-Head-Change                         Max.-Flux-Residual
  Residual-Control   Outer-Iter.   Inner-Iter.     Column Row Layer    Maximum-Head-Change  Column Row Layer    Maximum-Flux-Residual          L2-NORM 
          0                 1           2             5    7     1       0.1161527920E+01       5    7    1         0.6226378159E+02      0.1224805952E+03
          0                 2           2             5    7     1       0.3032467624E+00       5    7    1         0.1629911293E+02      0.3477311992E+02
          0                 3           2             4    6     1       0.1854309475E+00       4    6    1         0.9956050591E+01      0.1464291590E+02
          0                 4           2             4    6     1       0.1092287231E+00       4    6    1         0.5911904875E+01      0.6721059729E+01
          0                 5           2             4    6     1       0.6400391444E-01       4    6    1         0.3477719723E+01      0.3610823646E+01
          0                 6           2             4    6     1       0.3740672296E-01       4    6    1         0.2036462341E+01      0.2059357102E+01
          0                 7           2             4    6     1       0.2183394474E-01       4    6    1         0.1189805467E+01      0.1194261912E+01
          0                 8           2             4    6     1       0.1273609087E-01       4    6    1         0.6943648164E+00      0.6954301983E+00
          0                 9           2             4    6     1       0.7426789681E-02       4    6    1         0.4050012825E+00      0.4053323029E+00
          0                10           2             4    6     1       0.4330087839E-02       4    6    1         0.2361586216E+00      0.2362902193E+00
                                                   Max.-Head-Change                         Max.-Flux-Residual
  Residual-Control   Outer-Iter.   Inner-Iter.     Column Row Layer    Maximum-Head-Change  Column Row Layer    Maximum-Flux-Residual          L2-NORM 
          0                11           2             4    6     1       0.2524396714E-02       4    6    1         0.1376862664E+00      0.1377485314E+00
          0                12           2             4    6     1       0.1471638572E-02       4    6    1         0.8026887032E-01      0.8030146769E-01
          0                13           2             4    6     1       0.8578987580E-03       4    6    1         0.4679382262E-01      0.4681182297E-01
          0                14           2             4    6     1       0.5001111887E-03       4    6    1         0.2727861473E-01      0.2728882716E-01
          0                15           2             4    6     1       0.2915378358E-03       4    6    1         0.1590202016E-01      0.1590789324E-01
          0                16           2             4    6     1       0.1699503989E-03       4    6    1         0.9270013846E-02      0.9273414330E-02
          0                17           1             4    6     1       0.9907153777E-04       4    6    1         0.5403902571E-02      0.5405878312E-02

    ------------------------------------------------
       NWT REQUIRED           17 OUTER ITERATIONS 
       AND A TOTAL OF         33 INNER ITERATIONS.
    ------------------------------------------------

 NO OUTPUT CONTROL FOR STRESS PERIOD   22   TIME STEP    1
 
 SOLVING FOR HEAD 
                                                   Max.-Head-Change                         Max.-Flux-Residual
  Residual-Control   Outer-Iter.   Inner-Iter.     Column Row Layer    Maximum-Head-Change  Column Row Layer    Maximum-Flux-Residual          L2-NORM 
          0                 1           2             4    6     1       0.8878410191E+00       4    6    1         0.4843401424E+02      0.6178438047E+02
          0                 2           2             5    8     1       0.3967645927E+00       5    8    1         0.2190884616E+02      0.2592438234E+02
          0                 3           2             5    8     1       0.2280032068E+00       5    8    1         0.1258820228E+02      0.1319867646E+02
          0                 4           2             5    8     1       0.1310233131E+00       5    8    1         0.7234313722E+01      0.7325089389E+01
          0                 5           2             5    8     1       0.7529284163E-01       5    8    1         0.4157274248E+01      0.4171609477E+01
          0                 6           2             5    8     1       0.4326692169E-01       5    8    1         0.2389007149E+01      0.2391809469E+01
          0                 7           2             5    8     1       0.2486313592E-01       5    8    1         0.1372844541E+01      0.1373671649E+01
          0                 8           2             5    8     1       0.1428742594E-01       5    8    1         0.7889003310E+00      0.7892613077E+00
          0                 9           2             5    8     1       0.8210144518E-02       5    8    1         0.4533364707E+00      0.4535267111E+00
          0                10           2             5    8     1       0.4717878537E-02       5    8    1         0.2605059749E+00      0.2606125376E+00
                                                   Max.-Head-Change                         Max.-Flux-Residual
  Residual-Control   Outer-Iter.   Inner-Iter.     Column Row Layer    Maximum-Head-Change  Column Row Layer    Maximum-Flux-Residual          L2-NORM 
          0                11           1             5    8     1       0.2711078899E-02       5    8    1         0.1496972261E+00      0.1497579624E+00
          0                12           1             5    8     1       0.1557891508E-02       5    8    1         0.8602193539E-01      0.8605672922E-01
          0                13           1             5    8     1       0.8952246857E-03       5    8    1         0.4943155709E-01      0.4945152309E-01
          0                14           1             5    8     1       0.5144305582E-03       5    8    1         0.2840528457E-01      0.2841674997E-01
          0                15           1             5    8     1       0.2956115445E-03       5    8    1         0.1632277000E-01      0.1632935612E-01
          0                16           1             5    8     1       0.1698697221E-03       5    8    1         0.9379690249E-02      0.9383473773E-02
          0                17           1             5    8     1       0.9761364600E-04       5    8    1         0.5389929497E-02      0.5392103585E-02

    ------------------------------------------------
       NWT REQUIRED           17 OUTER ITERATIONS 
       AND A TOTAL OF         27 INNER ITERATIONS.
    ------------------------------------------------

 NO OUTPUT CONTROL FOR STRESS PERIOD   22   TIME STEP    2
 
 SOLVING FOR HEAD 
                                                   Max.-Head-Change                         Max.-Flux-Residual
  Residual-Control   Outer-Iter.   Inner-Iter.     Column Row Layer    Maximum-Head-Change  Column Row Layer    Maximum-Flux-Residual          L2-NORM 
          0                 1           2             4    8     1       0.1207796180E+01       4    8    1         0.6491511139E+02      0.9370551826E+02
          0                 2           2             4    8     1       0.6784194671E+00       4    8    1         0.3662565536E+02      0.5018169697E+02
          0                 3           2             4    8     1       0.3815275871E+00       4    8    1         0.2059020733E+02      0.2934489931E+02
          0                 4           2             5    7     1       0.1914309965E+00       5    7    1         0.1044223020E+02      0.1371215873E+02
          0                 5           2             5    7     1       0.1115798063E+00       5    7    1         0.6086636477E+01      0.7482504945E+01
          0                 6           2             5    7     1       0.6505012559E-01       5    7    1         0.3547771729E+01      0.4320149058E+01
          0                 7           2             5    7     1       0.3793733087E-01       5    7    1         0.2068410063E+01      0.2532869392E+01
          0                 8           2             5    7     1       0.2213483768E-01       5    7    1         0.1206371873E+01      0.1490910037E+01
          0                 9           2             5    7     1       0.1292091581E-01       5    7    1         0.7039152975E+00      0.8786278285E+00
          0                10           2             5    7     1       0.7546120951E-02       5    7    1         0.4109307058E+00      0.5180657977E+00
                                                   Max.-Head-Change                         Max.-Flux-Residual
  Residual-Control   Outer-Iter.   Inner-Iter.     Column Row Layer    Maximum-Head-Change  Column Row Layer    Maximum-Flux-Residual          L2-NORM 
          0                11           2             5    7     1       0.4409284807E-02       5    7    1         0.2400107673E+00      0.3055760479E+00
          0                12           2             5    7     1       0.2577648933E-02       5    7    1         0.1402511961E+00      0.1802956036E+00
          0                13           2             5    7     1       0.1507600360E-02       5    7    1         0.8199608106E-01      0.1064069692E+00
          0                14           2             5    7     1       0.8821659356E-03       5    7    1         0.4796072455E-01      0.6281510971E-01
          0                15           2             5    7     1       0.5164285039E-03       5    7    1         0.2806591050E-01      0.3709010364E-01
          0                16           2             5    7     1       0.3024545093E-03       5    7    1         0.1643113395E-01      0.2190499602E-01
          0                17           2             5    7     1       0.1772122935E-03       5    7    1         0.9623764455E-02      0.1293931983E-01
          0                18           1             5    7     1       0.1038736902E-03       5    7    1         0.5639043747E-02      0.7644611276E-02
          0                19           1             5    7     1       0.6091007612E-04       5    7    1         0.3305543892E-02      0.4517188478E-02

    ------------------------------------------------
       NWT REQUIRED           19 OUTER ITERATIONS 
       AND A TOTAL OF         36 INNER ITERATIONS.
    ------------------------------------------------

 NO OUTPUT CONTROL FOR STRESS PERIOD   22   TIME STEP    3
 
 SOLVING FOR HEAD 
                                                   Max.-Head-Change                         Max.-Flux-Residual
  Residual-Control   Outer-Iter.   Inner-Iter.     Column Row Layer    Maximum-Head-Change  Column Row Layer    Maximum-Flux-Residual          L2-NORM 
          0                 1           2             4    6     1       0.1220673415E+01       4    6    1         0.6486309277E+02      0.1049540820E+03
          0                 2           2             4    6     1       0.7229983272E+00       4    6    1         0.3898063782E+02      0.4558101165E+02
          0                 3           2             4    6     1       0.3442890458E+00       4    6    1         0.1863023359E+02      0.1988571321E+02
          0                 4           2             4    6     1       0.9920990984E-01       4    6    1         0.5366866653E+01      0.5766809893E+01
          0                 5           2             4    6     1       0.2860486096E-01       4    6    1         0.1546811576E+01      0.1673787931E+01
          0                 6           2             4    6     1       0.8252024080E-02       4    6    1         0.4460586066E+00      0.4862697487E+00
          0                 7           2             4    6     1       0.2381832032E-02       4    6    1         0.1286984791E+00      0.1414059168E+00
          0                 8           2             4    6     1       0.6878430076E-03       4    6    1         0.3715211992E-01      0.4116146693E-01
          0                 9           2             4    6     1       0.1987438970E-03       4    6    1         0.1073050708E-01      0.1199399217E-01
          0                10           1             4    6     1       0.5745447641E-04       4    6    1         0.3100865197E-02      0.3498707453E-02

    ------------------------------------------------
       NWT REQUIRED           10 OUTER ITERATIONS 
       AND A TOTAL OF         19 INNER ITERATIONS.
    ------------------------------------------------

 NO OUTPUT CONTROL FOR STRESS PERIOD   22   TIME STEP    4
 
 SOLVING FOR HEAD 
                                                   Max.-Head-Change                         Max.-Flux-Residual
  Residual-Control   Outer-Iter.   Inner-Iter.     Column Row Layer    Maximum-Head-Change  Column Row Layer    Maximum-Flux-Residual          L2-NORM 
          0                 1           2             5    8     1       0.1319956141E+01       5    8    1         0.7270755431E+02      0.7365524767E+02
          0                 2           2             4    7     1      -0.1918176255E+01       4    6    1        -0.1009855629E+03      0.2327899761E+03
          0                 3           2             5    8     1      -0.6114809848E+00       5    8    1        -0.3498794575E+02      0.4074409635E+02
          0                 4           2             5    8     1      -0.3580157054E+00       5    8    1        -0.2031618773E+02      0.2036915670E+02
          0                 5           2             5    8     1      -0.2097562497E+00       5    8    1        -0.1191402489E+02      0.1191414480E+02
          0                 6           2             5    8     1      -0.1228952677E+00       5    8    1        -0.6979518412E+01      0.6979523504E+01
          0                 7           2             5    8     1      -0.7200432155E-01       5    8    1        -0.4089178707E+01      0.4089180679E+01
          0                 8           2             5    8     1      -0.4218738680E-01       5    8    1        -0.2395794588E+01      0.2395795785E+01
          0                 9           2             5    8     1      -0.2471757643E-01       5    8    1        -0.1403670148E+01      0.1403670849E+01
          0                10           2             5    8     1      -0.1448196486E-01       5    8    1        -0.8223949286E+00      0.8223953398E+00
                                                   Max.-Head-Change                         Max.-Flux-Residual
  Residual-Control   Outer-Iter.   Inner-Iter.     Column Row Layer    Maximum-Head-Change  Column Row Layer    Maximum-Flux-Residual          L2-NORM 
          0                11           2             5    8     1      -0.8484904015E-02       5    8    1        -0.4818307688E+00      0.4818310098E+00
          0                12           1             5    8     1      -0.4971230786E-02       5    8    1        -0.2822972927E+00      0.2822974340E+00
          0                13           1             5    8     1      -0.2912582878E-02       5    8    1        -0.1653927933E+00      0.1653928761E+00
          0                14           1             5    8     1      -0.1706435718E-02       5    8    1        -0.9690002904E-01      0.9690007755E-01
          0                15           1             5    8     1      -0.9997669798E-03       5    8    1        -0.5677126271E-01      0.5677129113E-01
          0                16           1             5    8     1      -0.5857399215E-03       5    8    1        -0.3326062787E-01      0.3326064453E-01
          0                17           1             5    8     1      -0.3431689779E-03       5    8    1        -0.1948630651E-01      0.1948631627E-01
          0                18           1             5    8     1      -0.2010519849E-03       5    8    1        -0.1141631083E-01      0.1141631655E-01
          0                19           1             5    8     1      -0.1177893023E-03       5    8    1        -0.6688353119E-02      0.6688356481E-02
          0                20           1             5    8     1      -0.6900816395E-04       5    8    1        -0.3918408842E-02      0.3918410820E-02

    ------------------------------------------------
       NWT REQUIRED           20 OUTER ITERATIONS 
       AND A TOTAL OF         31 INNER ITERATIONS.
    ------------------------------------------------

 NO OUTPUT CONTROL FOR STRESS PERIOD   22   TIME STEP    5
 
 SOLVING FOR HEAD 
                                                   Max.-Head-Change                         Max.-Flux-Residual
  Residual-Control   Outer-Iter.   Inner-Iter.     Column Row Layer    Maximum-Head-Change  Column Row Layer    Maximum-Flux-Residual          L2-NORM 
          0                 1           2             5    8     1       0.7425080802E+00       5    8    1         0.3998109971E+02      0.6157038409E+02
          0                 2           2             4    8     1       0.3831599216E+00       4    8    1         0.2073047280E+02      0.2687308510E+02
          0                 3           2             4    8     1       0.2359058053E+00       4    8    1         0.1274895338E+02      0.1572113138E+02
          0                 4           2             4    8     1       0.9130157703E-01       4    8    1         0.4940936921E+01      0.7038231880E+01
          0                 5           2             5    7     1       0.5095937381E-01       5    7    1         0.2815321730E+01      0.3174591373E+01
          0                 6           2             5    7     1       0.2923510895E-01       5    7    1         0.1616657899E+01      0.1672522025E+01
          0                 7           2             5    7     1       0.1676154987E-01       5    7    1         0.9273251692E+00      0.9360260870E+00
          0                 8           2             5    7     1       0.9606845551E-02       5    7    1         0.5316279294E+00      0.5330821678E+00
          0                 9           2             5    7     1       0.5505191203E-02       5    7    1         0.3046888376E+00      0.3049786490E+00
          0                10           2             5    7     1       0.3154457485E-02       5    7    1         0.1745978139E+00      0.1746763719E+00
                                                   Max.-Head-Change                         Max.-Flux-Residual
  Residual-Control   Outer-Iter.   Inner-Iter.     Column Row Layer    Maximum-Head-Change  Column Row Layer    Maximum-Flux-Residual          L2-NORM 
          0                11           2             5    7     1       0.1807408770E-02       5    7    1         0.1000428821E+00      0.1000726663E+00
          0                12           2             5    7     1       0.1035564994E-02       5    7    1         0.5732121190E-01      0.5733531999E-01
          0                13           2             5    7     1       0.5933251382E-03       5    7    1         0.3284241044E-01      0.3284984349E-01
          0                14           2             5    7     1       0.3399423180E-03       5    7    1         0.1881697175E-01      0.1882107072E-01
          0                15           2             5    7     1       0.1947673726E-03       5    7    1         0.1078107003E-01      0.1078337598E-01
          0                16           2             5    7     1       0.1115902882E-03       5    7    1         0.6176929786E-02      0.6178239074E-02
          0                17           1             5    7     1       0.6393463445E-04       5    7    1         0.3539017979E-02      0.3539764715E-02

    ------------------------------------------------
       NWT REQUIRED           17 OUTER ITERATIONS 
       AND A TOTAL OF         33 INNER ITERATIONS.
    ------------------------------------------------

 NO OUTPUT CONTROL FOR STRESS PERIOD   22   TIME STEP    6
 
 SOLVING FOR HEAD 
                                                   Max.-Head-Change                         Max.-Flux-Residual
  Residual-Control   Outer-Iter.   Inner-Iter.     Column Row Layer    Maximum-Head-Change  Column Row Layer    Maximum-Flux-Residual          L2-NORM 
          0                 1           2             4    7     1       0.1097400544E+01       4    7    1         0.5924307442E+02      0.9083653736E+02
          0                 2           2             4    6     1       0.4031826751E+00       4    6    1         0.2150634068E+02      0.3227288436E+02
          0                 3           2             4    6     1       0.2386059409E+00       4    6    1         0.1286789386E+02      0.1465710496E+02
          0                 4           2             4    6     1       0.8700441580E-01       4    6    1         0.4701630758E+01      0.5149904576E+01
          0                 5           2             4    6     1       0.2512159468E-01       4    6    1         0.1357000983E+01      0.1498826262E+01
          0                 6           2             4    6     1       0.7257595582E-02       4    6    1         0.3918826231E+00      0.4365824723E+00
          0                 7           2             4    6     1       0.2097834836E-02       4    6    1         0.1132304228E+00      0.1272709356E+00
          0                 8           2             4    6     1       0.6067068023E-03       4    6    1         0.3273420198E-01      0.3713145969E-01
          0                 9           2             4    6     1       0.1755546753E-03       4    6    1         0.9468212176E-02      0.1084184690E-01
          0                10           1             4    6     1       0.5082404091E-04       4    6    1         0.2740055849E-02      0.3168218138E-02

    ------------------------------------------------
       NWT REQUIRED           10 OUTER ITERATIONS 
       AND A TOTAL OF         19 INNER ITERATIONS.
    ------------------------------------------------

 NO OUTPUT CONTROL FOR STRESS PERIOD   22   TIME STEP    7
 
 SOLVING FOR HEAD 
                                                   Max.-Head-Change                         Max.-Flux-Residual
  Residual-Control   Outer-Iter.   Inner-Iter.     Column Row Layer    Maximum-Head-Change  Column Row Layer    Maximum-Flux-Residual          L2-NORM 
          0                 1           2             4    5     1       0.6972263776E-01       4    5    1         0.3788682617E+01      0.9862487806E+01
          0                 2           2             4    6     1      -0.1729876223E-01       4    6    1        -0.9206015279E+00      0.1566490814E+01
          0                 3           2             5    6     1      -0.4161622814E-02       5    6    1        -0.2284105608E+00      0.2906800203E+00
          0                 4           2             4    7     1      -0.5309335488E-03       4    7    1        -0.2833853856E-01      0.4955533207E-01
          0                 5           2             4    7     1      -0.1564830740E-03       4    7    1        -0.8318828257E-02      0.1354892704E-01
          0                 6           1             4    7     1      -0.4610629434E-04       4    7    1        -0.2453923000E-02      0.3939113515E-02

    ------------------------------------------------
       NWT REQUIRED            6 OUTER ITERATIONS 
       AND A TOTAL OF         11 INNER ITERATIONS.
    ------------------------------------------------

 NO OUTPUT CONTROL FOR STRESS PERIOD   22   TIME STEP    8
 
 SOLVING FOR HEAD 
                                                   Max.-Head-Change                         Max.-Flux-Residual
  Residual-Control   Outer-Iter.   Inner-Iter.     Column Row Layer    Maximum-Head-Change  Column Row Layer    Maximum-Flux-Residual          L2-NORM 
          0                 1           2             4    5     1       0.6626570157E-01       4    5    1         0.3602779913E+01      0.9486635349E+01
          0                 2           2             4    6     1      -0.1616873753E-01       4    6    1        -0.8600759812E+00      0.1476422647E+01
          0                 3           2             5    6     1      -0.3818433504E-02       5    6    1        -0.2117384157E+00      0.2773222666E+00
          0                 4           2             5    6     1      -0.1077719304E-02       5    6    1        -0.5908566536E-01      0.7340833719E-01
          0                 5           2             4    7     1      -0.1529680817E-03       4    7    1        -0.8145937601E-02      0.1309340728E-01
          0                 6           1             4    7     1      -0.4503528084E-04       4    7    1        -0.2397956076E-02      0.3787492487E-02

    ------------------------------------------------
       NWT REQUIRED            6 OUTER ITERATIONS 
       AND A TOTAL OF         11 INNER ITERATIONS.
    ------------------------------------------------

 NO OUTPUT CONTROL FOR STRESS PERIOD   22   TIME STEP    9
 
 SOLVING FOR HEAD 
                                                   Max.-Head-Change                         Max.-Flux-Residual
  Residual-Control   Outer-Iter.   Inner-Iter.     Column Row Layer    Maximum-Head-Change  Column Row Layer    Maximum-Flux-Residual          L2-NORM 
          0                 1           2             4    5     1       0.6300055718E-01       4    5    1         0.3426257597E+01      0.9092277743E+01
          0                 2           2             4    7     1      -0.1919920013E+01       4    6    1        -0.1007122384E+03      0.2458379839E+03
          0                 3           2             4    6     1       0.1843372307E+00       4    6    1         0.1006166625E+02      0.2250064958E+02
          0                 4           2             4    6     1      -0.1255433629E-01       4    6    1        -0.7044950690E+00      0.1576653527E+01
          0                 5           2             4    6     1       0.4995408352E-03       4    6    1         0.2881607316E-01      0.6459047446E-01
          0                 6           1             4    6     1      -0.6159575631E-05       4    6    1        -0.3652225350E-03      0.8359153041E-03

    ------------------------------------------------
       NWT REQUIRED            6 OUTER ITERATIONS 
       AND A TOTAL OF         11 INNER ITERATIONS.
    ------------------------------------------------

 NO OUTPUT CONTROL FOR STRESS PERIOD   22   TIME STEP   10
 
 SOLVING FOR HEAD 
                                                   Max.-Head-Change                         Max.-Flux-Residual
  Residual-Control   Outer-Iter.   Inner-Iter.     Column Row Layer    Maximum-Head-Change  Column Row Layer    Maximum-Flux-Residual          L2-NORM 
          0                 1           2             3    7     1       0.4229310640E-01       4    6    1        -0.2151899586E+01      0.5274374837E+01
          0                 2           2             5    8     1      -0.3657589324E-01       5    8    1        -0.2015116708E+01      0.4482007490E+01
          0                 3           2             4    8     1       0.1315727282E-01       4    8    1         0.7152657605E+00      0.1724246863E+01
          0                 4           2             4    8     1      -0.8959695001E-03       5    7    1        -0.5033837388E-01      0.1146223167E+00
          0                 5           1             4    8     1       0.3565136610E-04       5    7    1         0.2071676614E-02      0.4578481238E-02

    ------------------------------------------------
       NWT REQUIRED            5 OUTER ITERATIONS 
       AND A TOTAL OF          9 INNER ITERATIONS.
    ------------------------------------------------

 NO OUTPUT CONTROL FOR STRESS PERIOD   22   TIME STEP   11
 
 SOLVING FOR HEAD 
                                                   Max.-Head-Change                         Max.-Flux-Residual
  Residual-Control   Outer-Iter.   Inner-Iter.     Column Row Layer    Maximum-Head-Change  Column Row Layer    Maximum-Flux-Residual          L2-NORM 
          0                 1           2             3    7     1       0.4101057338E-01       4    6    1        -0.2023014126E+01      0.5053156072E+01
          0                 2           2             3    7     1      -0.3989185994E-02       4    6    1         0.2022917094E+00      0.5080022731E+00
          0                 3           2             3    7     1       0.2716490167E-03       4    6    1        -0.1416051760E-01      0.3555629721E-01
          0                 4           1             3    7     1      -0.1080916231E-04       4    6    1         0.5791655392E-03      0.1454058647E-02

    ------------------------------------------------
       NWT REQUIRED            4 OUTER ITERATIONS 
       AND A TOTAL OF          7 INNER ITERATIONS.
    ------------------------------------------------

 NO OUTPUT CONTROL FOR STRESS PERIOD   22   TIME STEP   12
 
 SOLVING FOR HEAD 
                                                   Max.-Head-Change                         Max.-Flux-Residual
  Residual-Control   Outer-Iter.   Inner-Iter.     Column Row Layer    Maximum-Head-Change  Column Row Layer    Maximum-Flux-Residual          L2-NORM 
          0                 1           2             3    7     1       0.4000776657E-01       4    6    1        -0.1926034245E+01      0.4882253336E+01
          0                 2           2             3    7     1      -0.3891641856E-02       4    6    1         0.1925946386E+00      0.4881864326E+00
          0                 3           2             3    7     1       0.2650066068E-03       4    6    1        -0.1348171354E-01      0.3417016773E-01
          0                 4           1             3    7     1      -0.1054485513E-04       4    6    1         0.5514024642E-03      0.1397399936E-02

    ------------------------------------------------
       NWT REQUIRED            4 OUTER ITERATIONS 
       AND A TOTAL OF          7 INNER ITERATIONS.
    ------------------------------------------------

 NO OUTPUT CONTROL FOR STRESS PERIOD   22   TIME STEP   13
 
 SOLVING FOR HEAD 
                                                   Max.-Head-Change                         Max.-Flux-Residual
  Residual-Control   Outer-Iter.   Inner-Iter.     Column Row Layer    Maximum-Head-Change  Column Row Layer    Maximum-Flux-Residual          L2-NORM 
          0                 1           2             3    7     1       0.3903323011E-01       4    6    1        -0.1833950257E+01      0.4720391685E+01
          0                 2           2             3    7     1      -0.3796847579E-02       4    6    1         0.1833870848E+00      0.4720054173E+00
          0                 3           2             3    7     1       0.2585514531E-03       4    6    1        -0.1283717662E-01      0.3303789083E-01
          0                 4           1             3    7     1      -0.1028799935E-04       4    6    1         0.5250409056E-03      0.1351090918E-02

    ------------------------------------------------
       NWT REQUIRED            4 OUTER ITERATIONS 
       AND A TOTAL OF          7 INNER ITERATIONS.
    ------------------------------------------------

 NO OUTPUT CONTROL FOR STRESS PERIOD   22   TIME STEP   14
 
 SOLVING FOR HEAD 
                                                   Max.-Head-Change                         Max.-Flux-Residual
  Residual-Control   Outer-Iter.   Inner-Iter.     Column Row Layer    Maximum-Head-Change  Column Row Layer    Maximum-Flux-Residual          L2-NORM 
          0                 1           2             3    7     1       0.3808622289E-01       4    6    1        -0.1746458880E+01      0.4566744144E+01
          0                 2           2             5    8     1      -0.1202128200E-01       5    8    1        -0.6633370200E+00      0.1291273257E+01
          0                 3           2             4    8     1       0.1027746646E-01       4    8    1         0.5583672188E+00      0.1359230171E+01
          0                 4           2             4    8     1      -0.3402549916E-03       5    7    1        -0.1923539989E-01      0.4192263981E-01
          0                 5           2             4    7     1      -0.9635717996E-03       5    8    1        -0.5392820996E-01      0.1306281730E+00
          0                 6           2             4    7     1       0.1315978880E-02       5    7    1         0.7470278532E-01      0.1830987968E+00
          0                 7           1             7   13     1      -0.3960497990E-04       7   13    1        -0.2268966362E-02      0.3537179753E-02

    ------------------------------------------------
       NWT REQUIRED            7 OUTER ITERATIONS 
       AND A TOTAL OF         13 INNER ITERATIONS.
    ------------------------------------------------

 NO OUTPUT CONTROL FOR STRESS PERIOD   22   TIME STEP   15
 
 SOLVING FOR HEAD 
                                                   Max.-Head-Change                         Max.-Flux-Residual
  Residual-Control   Outer-Iter.   Inner-Iter.     Column Row Layer    Maximum-Head-Change  Column Row Layer    Maximum-Flux-Residual          L2-NORM 
          0                 1           2             3    7     1       0.3716575792E-01       4    6    1        -0.1663300503E+01      0.4422065801E+01
          0                 2           2             4    7     1      -0.1911177802E+01       5    8    1        -0.1001126416E+03      0.2448258205E+03
          0                 3           2             4    7     1       0.1858039078E+00       4    8    1         0.1000841683E+02      0.2327115775E+02
          0                 4           2             4    7     1      -0.1265311437E-01       4    8    1        -0.7032411214E+00      0.1582652418E+01
          0                 5           2             4    7     1       0.5034765475E-03       4    8    1         0.2886636063E-01      0.6401085151E-01
          0                 6           1             4    7     1      -0.6208088584E-05       4    8    1        -0.3671046713E-03      0.8315859185E-03

    ------------------------------------------------
       NWT REQUIRED            6 OUTER ITERATIONS 
       AND A TOTAL OF         11 INNER ITERATIONS.
    ------------------------------------------------

 NO OUTPUT CONTROL FOR STRESS PERIOD   22   TIME STEP   16
 
 SOLVING FOR HEAD 
                                                   Max.-Head-Change                         Max.-Flux-Residual
  Residual-Control   Outer-Iter.   Inner-Iter.     Column Row Layer    Maximum-Head-Change  Column Row Layer    Maximum-Flux-Residual          L2-NORM 
          0                 1           2             5    8     1       0.7280649551E-01       5    8    1         0.3995422975E+01      0.5658067820E+01
          0                 2           2             5    8     1      -0.4113796665E-01       5    8    1        -0.2274544789E+01      0.4979440497E+01
          0                 3           2             4    7     1       0.1322022591E-01       4    7    1         0.7117039056E+00      0.1673213103E+01
          0                 4           2             4    7     1      -0.9002518655E-03       4    7    1        -0.5066958365E-01      0.7992801176E-01
          0                 5           1             4    7     1       0.3582182299E-04       4    7    1         0.2106110471E-02      0.2256472103E-02

    ------------------------------------------------
       NWT REQUIRED            5 OUTER ITERATIONS 
       AND A TOTAL OF          9 INNER ITERATIONS.
    ------------------------------------------------

 NO OUTPUT CONTROL FOR STRESS PERIOD   22   TIME STEP   17
 
 SOLVING FOR HEAD 
                                                   Max.-Head-Change                         Max.-Flux-Residual
  Residual-Control   Outer-Iter.   Inner-Iter.     Column Row Layer    Maximum-Head-Change  Column Row Layer    Maximum-Flux-Residual          L2-NORM 
          0                 1           2             5    8     1       0.6973520072E-01       5    8    1         0.3823307162E+01      0.5430014912E+01
          0                 2           2             5    8     1      -0.6783372059E-02       5    8    1        -0.3823334673E+00      0.5455258192E+00
          0                 3           2             5    8     1       0.4619221122E-03       5    8    1         0.2676332825E-01      0.3818345216E-01
          0                 4           1             5    8     1      -0.1838031470E-04       5    8    1        -0.1094621771E-02      0.1561477991E-02

    ------------------------------------------------
       NWT REQUIRED            4 OUTER ITERATIONS 
       AND A TOTAL OF          7 INNER ITERATIONS.
    ------------------------------------------------

 NO OUTPUT CONTROL FOR STRESS PERIOD   22   TIME STEP   18
 
 SOLVING FOR HEAD 
                                                   Max.-Head-Change                         Max.-Flux-Residual
  Residual-Control   Outer-Iter.   Inner-Iter.     Column Row Layer    Maximum-Head-Change  Column Row Layer    Maximum-Flux-Residual          L2-NORM 
          0                 1           2             5    8     1       0.6616238084E-01       5    8    1         0.3623849586E+01      0.5156690870E+01
          0                 2           2             5    8     1      -0.6469108734E-02       5    8    1        -0.3648918094E+00      0.5167465164E+00
          0                 3           2             5    8     1       0.4405214492E-03       5    8    1         0.2554237779E-01      0.3616973086E-01
          0                 4           1             5    8     1      -0.1752876442E-04       5    8    1        -0.1044684982E-02      0.1479201517E-02

    ------------------------------------------------
       NWT REQUIRED            4 OUTER ITERATIONS 
       AND A TOTAL OF          7 INNER ITERATIONS.
    ------------------------------------------------

 NO OUTPUT CONTROL FOR STRESS PERIOD   22   TIME STEP   19
 
 SOLVING FOR HEAD 
                                                   Max.-Head-Change                         Max.-Flux-Residual
  Residual-Control   Outer-Iter.   Inner-Iter.     Column Row Layer    Maximum-Head-Change  Column Row Layer    Maximum-Flux-Residual          L2-NORM 
          0                 1           2             5    8     1       0.6270539144E-01       5    8    1         0.3436406208E+01      0.4905663216E+01
          0                 2           2             5    8     1      -0.6099624545E-02       5    8    1        -0.3436474162E+00      0.4905454445E+00
          0                 3           2             5    8     1       0.4153315623E-03       5    8    1         0.2405360756E-01      0.3433331041E-01
          0                 4           1             5    8     1      -0.1649508355E-04       5    8    1        -0.9819703771E-03      0.1401194369E-02

    ------------------------------------------------
       NWT REQUIRED            4 OUTER ITERATIONS 
       AND A TOTAL OF          7 INNER ITERATIONS.
    ------------------------------------------------

 NO OUTPUT CONTROL FOR STRESS PERIOD   22   TIME STEP   20
 
 SOLVING FOR HEAD 
                                                   Max.-Head-Change                         Max.-Flux-Residual
  Residual-Control   Outer-Iter.   Inner-Iter.     Column Row Layer    Maximum-Head-Change  Column Row Layer    Maximum-Flux-Residual          L2-NORM 
          0                 1           2             5    8     1       0.5952191457E-01       5    8    1         0.3258536840E+01      0.4674283855E+01
          0                 2           2             4    7     1      -0.1913232799E+01       5    8    1        -0.1003258591E+03      0.2452597020E+03
          0                 3           2             4    7     1       0.1852578492E+00       4    7    1         0.1007006440E+02      0.1858603940E+02
          0                 4           2             4    7     1      -0.1261636326E-01       4    7    1        -0.7138310064E+00      0.9564879092E+00
          0                 5           2             4    7     1       0.5020091903E-03       4    7    1         0.2954670822E-01      0.3114471379E-01
          0                 6           1             7   13     1      -0.7335012355E-05       7   13    1        -0.4202430646E-03      0.5810000272E-03

    ------------------------------------------------
       NWT REQUIRED            6 OUTER ITERATIONS 
       AND A TOTAL OF         11 INNER ITERATIONS.
    ------------------------------------------------

 NO OUTPUT CONTROL FOR STRESS PERIOD   22   TIME STEP   21
 
 SOLVING FOR HEAD 
                                                   Max.-Head-Change                         Max.-Flux-Residual
  Residual-Control   Outer-Iter.   Inner-Iter.     Column Row Layer    Maximum-Head-Change  Column Row Layer    Maximum-Flux-Residual          L2-NORM 
          0                 1           2             5    8     1       0.1103060542E+00       5    8    1         0.6058213942E+01      0.1000808368E+02
          0                 2           2             5    8     1      -0.4478684760E-01       5    8    1        -0.2480826221E+01      0.5411496879E+01
          0                 3           2             5    8     1       0.1243960096E-01       5    8    1         0.7050676328E+00      0.1680456370E+01
          0                 4           2             5    8     1      -0.4949841923E-03       5    8    1        -0.2883735947E-01      0.6898900321E-01
          0                 5           1             5    8     1       0.6103368155E-05       5    8    1         0.3654581410E-03      0.9201196328E-03

    ------------------------------------------------
       NWT REQUIRED            5 OUTER ITERATIONS 
       AND A TOTAL OF          9 INNER ITERATIONS.
    ------------------------------------------------

 NO OUTPUT CONTROL FOR STRESS PERIOD   22   TIME STEP   22
 
 SOLVING FOR HEAD 
                                                   Max.-Head-Change                         Max.-Flux-Residual
  Residual-Control   Outer-Iter.   Inner-Iter.     Column Row Layer    Maximum-Head-Change  Column Row Layer    Maximum-Flux-Residual          L2-NORM 
          0                 1           2             5    8     1       0.1051934922E+00       5    8    1         0.5771929487E+01      0.9589879876E+01
          0                 2           2             5    8     1      -0.1023252585E-01       5    8    1        -0.5771977955E+00      0.9604305058E+00
          0                 3           2             5    8     1       0.6967964149E-03       5    8    1         0.4040381725E-01      0.6722854660E-01
          0                 4           1             5    8     1      -0.2772618460E-04       5    8    1        -0.1652518638E-02      0.2751673922E-02

    ------------------------------------------------
       NWT REQUIRED            4 OUTER ITERATIONS 
       AND A TOTAL OF          7 INNER ITERATIONS.
    ------------------------------------------------

 NO OUTPUT CONTROL FOR STRESS PERIOD   22   TIME STEP   23
 
 SOLVING FOR HEAD 
                                                   Max.-Head-Change                         Max.-Flux-Residual
  Residual-Control   Outer-Iter.   Inner-Iter.     Column Row Layer    Maximum-Head-Change  Column Row Layer    Maximum-Flux-Residual          L2-NORM 
          0                 1           2             5    8     1       0.9972419426E-01       5    8    1         0.5466430405E+01      0.9123885554E+01
          0                 2           2             5    8     1      -0.9700955926E-02       5    8    1        -0.5466478927E+00      0.9129382565E+00
          0                 3           2             5    8     1       0.6605984641E-03       5    8    1         0.3826532317E-01      0.6390449530E-01
          0                 4           1             5    8     1      -0.2628583413E-04       5    8    1        -0.1565054111E-02      0.2613621422E-02

    ------------------------------------------------
       NWT REQUIRED            4 OUTER ITERATIONS 
       AND A TOTAL OF          7 INNER ITERATIONS.
    ------------------------------------------------

 NO OUTPUT CONTROL FOR STRESS PERIOD   22   TIME STEP   24
 
 SOLVING FOR HEAD 
                                                   Max.-Head-Change                         Max.-Flux-Residual
  Residual-Control   Outer-Iter.   Inner-Iter.     Column Row Layer    Maximum-Head-Change  Column Row Layer    Maximum-Flux-Residual          L2-NORM 
          0                 1           2             5    8     1       0.9463035095E-01       5    8    1         0.5182190090E+01      0.8692693910E+01
          0                 2           2             5    8     1      -0.9205024305E-02       5    8    1        -0.5182237798E+00      0.8695628173E+00
          0                 3           2             5    8     1       0.6268273690E-03       5    8    1         0.3627563511E-01      0.6086836010E-01
          0                 4           1             5    8     1      -0.2494205073E-04       5    8    1        -0.1483675754E-02      0.2489463418E-02

    ------------------------------------------------
       NWT REQUIRED            4 OUTER ITERATIONS 
       AND A TOTAL OF          7 INNER ITERATIONS.
    ------------------------------------------------

 NO OUTPUT CONTROL FOR STRESS PERIOD   22   TIME STEP   25
 
 SOLVING FOR HEAD 
                                                   Max.-Head-Change                         Max.-Flux-Residual
  Residual-Control   Outer-Iter.   Inner-Iter.     Column Row Layer    Maximum-Head-Change  Column Row Layer    Maximum-Flux-Residual          L2-NORM 
          0                 1           2             5    8     1       0.8988425557E-01       5    8    1         0.4917518156E+01      0.8292999538E+01
          0                 2           2             4    7     1      -0.1863974113E+01       5    8    1        -0.1004917565E+03      0.2456233374E+03
          0                 3           2             4    7     1       0.1269107072E+00       5    8    1         0.7032158364E+01      0.1719476757E+02
          0                 4           2             4    7     1      -0.5049987371E-02       5    8    1        -0.2874943257E+00      0.7062344619E+00
          0                 5           1             7   13     1       0.1065454743E-03       7   13    1         0.5939607865E-02      0.1081469707E-01
          0                 6           1             7   13     1      -0.7250503667E-05       7   13    1        -0.4154008718E-03      0.4368131795E-03

    ------------------------------------------------
       NWT REQUIRED            6 OUTER ITERATIONS 
       AND A TOTAL OF         10 INNER ITERATIONS.
    ------------------------------------------------

 NO OUTPUT CONTROL FOR STRESS PERIOD   22   TIME STEP   26
 
 SOLVING FOR HEAD 
                                                   Max.-Head-Change                         Max.-Flux-Residual
  Residual-Control   Outer-Iter.   Inner-Iter.     Column Row Layer    Maximum-Head-Change  Column Row Layer    Maximum-Flux-Residual          L2-NORM 
          0                 1           2             5    8     1       0.1392168871E+00       5    8    1         0.7636690992E+01      0.1397851318E+02
          0                 2           2             5    8     1      -0.4759898833E-01       5    8    1        -0.2638668623E+01      0.5784647563E+01
          0                 3           2             5    8     1       0.1263109286E-01       5    8    1         0.7161167270E+00      0.1705401766E+01
          0                 4           2             5    8     1      -0.5026038049E-03       5    8    1        -0.2928926613E-01      0.7000567923E-01
          0                 5           1             5    8     1       0.6197321606E-05       5    8    1         0.3711852059E-03      0.9330401870E-03

    ------------------------------------------------
       NWT REQUIRED            5 OUTER ITERATIONS 
       AND A TOTAL OF          9 INNER ITERATIONS.
    ------------------------------------------------

 NO OUTPUT CONTROL FOR STRESS PERIOD   22   TIME STEP   27
 
 SOLVING FOR HEAD 
                                                   Max.-Head-Change                         Max.-Flux-Residual
  Residual-Control   Outer-Iter.   Inner-Iter.     Column Row Layer    Maximum-Head-Change  Column Row Layer    Maximum-Flux-Residual          L2-NORM 
          0                 1           2             5    8     1       0.1327314293E+00       5    8    1         0.7274265529E+01      0.1340918292E+02
          0                 2           2             5    8     1      -0.1291114889E-01       5    8    1        -0.7274266536E+00      0.1341944945E+01
          0                 3           2             5    8     1       0.8792013722E-03       5    8    1         0.5091988678E-01      0.9393531316E-01
          0                 4           1             5    8     1      -0.3498424552E-04       5    8    1        -0.2082626268E-02      0.3841877952E-02

    ------------------------------------------------
       NWT REQUIRED            4 OUTER ITERATIONS 
       AND A TOTAL OF          7 INNER ITERATIONS.
    ------------------------------------------------

 NO OUTPUT CONTROL FOR STRESS PERIOD   22   TIME STEP   28
 
 SOLVING FOR HEAD 
                                                   Max.-Head-Change                         Max.-Flux-Residual
  Residual-Control   Outer-Iter.   Inner-Iter.     Column Row Layer    Maximum-Head-Change  Column Row Layer    Maximum-Flux-Residual          L2-NORM 
          0                 1           2             5    8     1       0.1321267232E+00       5    8    1         0.7237110571E+01      0.1298545368E+02
          0                 2           2             5    8     1       0.6009378335E-01       5    8    1         0.3324151989E+01      0.3494616429E+01
          0                 3           2             5    8     1       0.2733153786E-01       5    8    1         0.1508709387E+01      0.1510625735E+01
          0                 4           2             5    8     1       0.1243079112E-01       5    8    1         0.6863605604E+00      0.6863688407E+00
          0                 5           1             5    8     1       0.5653708824E-02       5    8    1         0.3121668666E+00      0.3121681649E+00
          0                 6           1             5    8     1       0.2571390895E-02       5    8    1         0.1419777463E+00      0.1419783090E+00
          0                 7           1             5    8     1       0.1169506832E-02       5    8    1         0.6457365684E-01      0.6457391137E-01
          0                 8           1             5    8     1       0.5319091037E-03       5    8    1         0.2936905845E-01      0.2936917434E-01
          0                 9           1             5    8     1       0.2419201720E-03       5    8    1         0.1335748578E-01      0.1335753848E-01
          0                10           1             5    8     1       0.1100288926E-03       5    8    1         0.6075183423E-02      0.6075207379E-02
          0                11           1             5    8     1       0.5004277705E-04       5    8    1         0.2763083866E-02      0.2763094775E-02

    ------------------------------------------------
       NWT REQUIRED           11 OUTER ITERATIONS 
       AND A TOTAL OF         15 INNER ITERATIONS.
    ------------------------------------------------

 NO OUTPUT CONTROL FOR STRESS PERIOD   22   TIME STEP   29
 
 SOLVING FOR HEAD 
                                                   Max.-Head-Change                         Max.-Flux-Residual
  Residual-Control   Outer-Iter.   Inner-Iter.     Column Row Layer    Maximum-Head-Change  Column Row Layer    Maximum-Flux-Residual          L2-NORM 
          0                 1           2             5    8     1       0.4978058893E+00       5    8    1         0.2741963187E+02      0.2931878891E+02
          0                 2           2             5    8     1       0.2199127969E+00       5    8    1         0.1215061591E+02      0.1219485741E+02
          0                 3           2             5    8     1       0.9722216797E-01       5    8    1         0.5364569283E+01      0.5365101343E+01
          0                 4           2             5    8     1       0.4298210998E-01       5    8    1         0.2371877178E+01      0.2371886624E+01
          0                 5           2             5    8     1       0.1900247924E-01       5    8    1         0.1048617096E+01      0.1048621378E+01
          0                 6           2             5    8     1       0.8401036478E-02       5    8    1         0.4635967656E+00      0.4635986367E+00
          0                 7           1             5    8     1       0.3714116338E-02       5    8    1         0.2049574167E+00      0.2049582422E+00
          0                 8           1             5    8     1       0.1642018888E-02       5    8    1         0.9061216421E-01      0.9061253010E-01
          0                 9           1             5    8     1       0.7259390123E-03       5    8    1         0.4005978578E-01      0.4005994868E-01
          0                10           1             5    8     1       0.3209400647E-03       5    8    1         0.1771056513E-01      0.1771063659E-01
                                                   Max.-Head-Change                         Max.-Flux-Residual
  Residual-Control   Outer-Iter.   Inner-Iter.     Column Row Layer    Maximum-Head-Change  Column Row Layer    Maximum-Flux-Residual          L2-NORM 
          0                11           1             5    8     1       0.1418887625E-03       5    8    1         0.7829905322E-02      0.7829936889E-02
          0                12           1             5    8     1       0.6272933132E-04       5    8    1         0.3461618680E-02      0.3461632598E-02

    ------------------------------------------------
       NWT REQUIRED           12 OUTER ITERATIONS 
       AND A TOTAL OF         18 INNER ITERATIONS.
    ------------------------------------------------

 NO OUTPUT CONTROL FOR STRESS PERIOD   22   TIME STEP   30



 STREAM LISTING     PERIOD     22   STEP       30

 LAYER ROW COL. STREAM  RCH.  FLOW INTO     FLOW TO   FLOW OUT OF   OVRLND.     DIRECT     STREAM       STREAM     STREAM     STREAM   STREAMBED  STREAMBED
                SEG.NO.  NO.  STRM. RCH.    AQUIFER    STRM. RCH.    RUNOFF     PRECIP       ET          HEAD       DEPTH      WIDTH   CONDCTNC.   GRADIENT

   1    1    1     1     1    1.8324E+01  2.0985E-01   1.8114E+01  0.000E+00  0.000E+00  0.000E+00  1.09412E+03  1.071E+00  1.146E+01  5.155E-02  1.357E+00
   1    2    2     1     2    1.8114E+01  3.2368E-01   1.7790E+01  0.000E+00  0.000E+00  0.000E+00  1.08912E+03  1.066E+00  1.137E+01  7.960E-02  1.355E+00
   1    3    3     1     3    1.7790E+01  2.7478E-01   1.7515E+01  0.000E+00  0.000E+00  0.000E+00  1.08348E+03  1.061E+00  1.128E+01  6.766E-02  1.354E+00
   1    3    4     1     4    1.7515E+01  2.5199E-01   1.7263E+01  0.000E+00  0.000E+00  0.000E+00  1.07846E+03  1.056E+00  1.119E+01  6.212E-02  1.352E+00
   1    4    5     2     1    1.5263E+01  3.0363E-01   1.4960E+01  0.000E+00  0.000E+00  0.000E+00  1.07283E+03  8.927E-01  1.200E+01  7.800E-02  1.298E+00
   1    5    6     2     2    1.4960E+01  2.3299E-01   1.4727E+01  0.000E+00  0.000E+00  0.000E+00  1.06739E+03  8.832E-01  1.200E+01  6.000E-02  1.294E+00
   1    6    6     2     3    1.4727E+01  2.3249E-01   1.4494E+01  0.000E+00  0.000E+00  0.000E+00  1.06267E+03  8.749E-01  1.200E+01  6.000E-02  1.292E+00
   1    7    6     2     4    1.4494E+01  2.3199E-01   1.4262E+01  0.000E+00  0.000E+00  0.000E+00  1.05794E+03  8.665E-01  1.200E+01  6.000E-02  1.289E+00
   1    8    6     2     5    1.4262E+01  2.3149E-01   1.4031E+01  0.000E+00  0.000E+00  0.000E+00  1.05322E+03  8.581E-01  1.200E+01  6.000E-02  1.286E+00
   1    3    5     3     1    2.0000E+00  2.8252E-01   1.7175E+00  0.000E+00  0.000E+00  0.000E+00  1.07555E+03  1.909E+00  9.636E+00  7.227E-02  1.955E+00
   1    3    6     3     2    1.7175E+00  2.4905E-01   1.4684E+00  0.000E+00  0.000E+00  0.000E+00  1.07264E+03  1.727E+00  8.909E+00  6.682E-02  1.864E+00
   1    3    7     3     3    1.4684E+00  1.9718E-01   1.2712E+00  0.000E+00  0.000E+00  0.000E+00  1.06987E+03  1.555E+00  8.218E+00  5.547E-02  1.777E+00
   1    4    8     3     4    1.2712E+00  2.2567E-01   1.0456E+00  0.000E+00  0.000E+00  0.000E+00  1.06682E+03  1.364E+00  7.455E+00  6.709E-02  1.682E+00
   1    5    8     3     5    1.0456E+00  1.5790E-01   8.8768E-01  0.000E+00  0.000E+00  0.000E+00  1.06362E+03  1.164E+00  6.655E+00  4.991E-02  1.582E+00
   1    6    8     3     6    8.8768E-01  5.5980E-02   8.3170E-01  0.000E+00  0.000E+00  0.000E+00  1.06158E+03  1.036E+00  6.145E+00  1.844E-02  1.518E+00
   1    5   10     4     1    1.0000E+01  9.0919E-02   9.9091E+00  0.000E+00  0.000E+00  0.000E+00  1.07836E+03  6.368E-01  1.000E+01  2.500E-02  1.212E+00
   1    5    9     4     2    9.9091E+00  1.8158E-01   9.7275E+00  0.000E+00  0.000E+00  0.000E+00  1.07154E+03  6.315E-01  1.000E+01  5.000E-02  1.211E+00
   1    6    8     4     3    9.7275E+00  1.2689E-01   9.6006E+00  0.000E+00  0.000E+00  0.000E+00  1.06381E+03  6.256E-01  1.000E+01  3.500E-02  1.209E+00
   1    6    8     5     1    1.0432E+01  2.2686E-01   1.0205E+01  0.000E+00  0.000E+00  0.000E+00  1.05868E+03  6.790E-01  1.542E+01  6.166E-02  1.226E+00
   1    7    7     5     2    1.0205E+01  2.7894E-01   9.9265E+00  0.000E+00  0.000E+00  0.000E+00  1.05417E+03  6.732E-01  1.519E+01  7.594E-02  1.224E+00
   1    8    7     5     3    9.9265E+00  1.9221E-01   9.7343E+00  0.000E+00  0.000E+00  0.000E+00  1.04992E+03  6.676E-01  1.497E+01  5.241E-02  1.223E+00
   1    8    6     5     4    9.7343E+00  1.3577E-01   9.5985E+00  0.000E+00  0.000E+00  0.000E+00  1.04691E+03  6.637E-01  1.482E+01  3.706E-02  1.221E+00
   1    9    6     6     1    2.3629E+01  2.5060E-01   2.3379E+01  0.000E+00  0.000E+00  0.000E+00  1.04390E+03  1.177E+00  1.200E+01  6.000E-02  1.392E+00
   1   10    7     6     2    2.3379E+01  2.5015E-01   2.3128E+01  0.000E+00  0.000E+00  0.000E+00  1.03935E+03  1.169E+00  1.200E+01  6.000E-02  1.390E+00
   1   11    7     6     3    2.3128E+01  2.4969E-01   2.2879E+01  0.000E+00  0.000E+00  0.000E+00  1.03480E+03  1.162E+00  1.200E+01  6.000E-02  1.387E+00
   1   12    7     6     4    2.2879E+01  2.4924E-01   2.2629E+01  0.000E+00  0.000E+00  0.000E+00  1.03024E+03  1.154E+00  1.200E+01  6.000E-02  1.385E+00
   1   13    7     6     5    2.2629E+01  5.3447E-03   2.2624E+01  0.000E+00  0.000E+00  0.000E+00  1.02706E+03  1.150E+00  1.200E+01  2.400E-02  7.423E-02
   1   14    9     7     1    1.5000E+02  1.3497E+00   1.4865E+02  0.000E+00  0.000E+00  0.000E+00  1.03987E+03  2.288E+00  5.529E+01  5.593E-01  8.044E-01
   1   13    8     7     2    1.4865E+02  1.8994E+00   1.4675E+02  0.000E+00  0.000E+00  0.000E+00  1.03478E+03  2.279E+00  5.526E+01  6.148E-01  1.030E+00
   1   13    7     7     3    1.4675E+02  1.5929E+00   1.4516E+02  0.000E+00  0.000E+00  0.000E+00  1.02969E+03  2.270E+00  5.521E+01  5.584E-01  9.508E-01
   1   13    6     8     1    1.6778E+02  1.0307E+00   1.6675E+02  0.000E+00  0.000E+00  0.000E+00  1.02481E+03  2.934E+00  4.255E+01  4.336E-01  7.924E-01
   1   13    5     8     2    1.6675E+02  2.8374E-01   1.6647E+02  0.000E+00  0.000E+00  0.000E+00  1.01855E+03  2.930E+00  4.248E+01  4.329E-01  2.185E-01
   1   13    4     8     3    1.6647E+02 -1.9890E+00   1.6846E+02  0.000E+00  0.000E+00  0.000E+00  1.01231E+03  2.936E+00  4.257E+01  4.338E+00 -1.529E-01
   1   13    3     8     4    1.6846E+02 -3.4026E+00   1.7186E+02  0.000E+00  0.000E+00  0.000E+00  1.00608E+03  2.953E+00  4.282E+01  4.364E+00 -2.599E-01
   1   13    2     8     5    1.7186E+02 -2.4386E+00   1.7430E+02  0.000E+00  0.000E+00  0.000E+00  9.99847E+02  2.972E+00  4.310E+01  4.392E+00 -1.851E-01
   1   13    1     8     6    1.7430E+02 -1.9089E+00   1.7621E+02  0.000E+00  0.000E+00  0.000E+00  9.94861E+02  2.986E+00  4.330E+01  2.647E+00 -2.403E-01
   1    8    6     9     1    1.6476E-06  0.0000E+00   1.6476E-06  0.000E+00  0.000E+00  0.000E+00  1.07875E+03  1.929E-04  4.000E+00  0.000E+00  1.000E+00
   1    8    5     9     2    1.6476E-06  0.0000E+00   1.6476E-06  0.000E+00  0.000E+00  0.000E+00  1.07825E+03  1.929E-04  4.000E+00  0.000E+00  1.000E+00





UNSATURATED ZONE PACKAGE VOLUMETRIC BUDGET FOR  TIME STEP    30 STRESS PERIOD   22
  ------------------------------------------------------------------------------



     CUMULATIVE VOLUMES      L**3       RATES FOR THIS TIME STEP      L**3/T
     ------------------                 ------------------------

           IN:                                      IN:
           ---                                      ---
        INFILTRATION =  6013414850.4247          INFILTRATION =           0.8475

          OUT:                                     OUT:
          ----                                     ----
              UZF ET =   856697091.5989                UZF ET =          12.0675
        UZF RECHARGE =  4414414641.8887          UZF RECHARGE =          48.0150

            IN - OUT =   742303116.9371              IN - OUT =         -59.2350

          STORAGE:                                 STORAGE:
          --------                                 --------
      STORAGE CHANGE =   743141963.3960        STORAGE CHANGE =         -59.2350

 PERCENT DISCREPANCY IS DIFFERENCE BETWEEN IN-OUT MINUS CHANGE IN STORAGE
 DIVIDED BY THE AVERAGE OF IN AND OUT TIMES 100

 PERCENT DISCREPANCY =          -0.00     PERCENT DISCREPANCY =           0.00






1
  VOLUMETRIC BUDGET FOR AGRICULTURAL FIELDS AT  END OF TIME STEP   30, STRESS PERIOD  22
  ------------------------------------------------------------------------------

     CUMULATIVE VOLUMES      L**3       RATES FOR THIS TIME STEP      L**3/T
     ------------------                 ------------------------

           IN:                                      IN:
           ---                                      ---
               AG WELLS  =  5381544960.0000                 AG WELLS  =           0.0000
      DIVERSION SEGMENTS =   585000640.0000        DIVERSION SEGMENTS =       1.6476E-06
       IRRIGATION PONDS  =           0.0000         IRRIGATION PONDS  =           0.0000
           GW IRRIGATION =           0.0000             GW IRRIGATION =           0.0000
           SW IRRIGATION =           0.0000             SW IRRIGATION =           0.0000
        SYSTEM LOSSES GW =           0.0000          SYSTEM LOSSES GW =           0.0000
        SYSTEM LOSSES SW =           0.0000          SYSTEM LOSSES SW =           0.0000

                TOTAL IN =  5966545408.0000                  TOTAL IN =       1.6476E-06

          OUT:                                     OUT:
          ----                                     ----
               AG WELLS  =           0.0000                 AG WELLS  =           0.0000
      DIVERSION SEGMENTS =           0.0000        DIVERSION SEGMENTS =           0.0000
       IRRIGATION PONDS  =           0.0000         IRRIGATION PONDS  =           0.0000
           GW IRRIGATION =  5381544960.0000             GW IRRIGATION =           0.0000
           SW IRRIGATION =   585012352.0000             SW IRRIGATION =       1.6477E-06
        SYSTEM LOSSES GW =           0.0000          SYSTEM LOSSES GW =           0.0000
        SYSTEM LOSSES SW =           0.0000          SYSTEM LOSSES SW =           0.0000

               TOTAL OUT =  5966557184.0000                 TOTAL OUT =       1.6477E-06

                IN - OUT =      -11776.0000                  IN - OUT =      -3.2969E-11

     PERCENT DISCREPANCY =          -0.00         PERCENT DISCREPANCY =          -0.00



1
  VOLUMETRIC BUDGET FOR ENTIRE MODEL AT END OF TIME STEP   30, STRESS PERIOD  22
  ------------------------------------------------------------------------------

     CUMULATIVE VOLUMES      L**3       RATES FOR THIS TIME STEP      L**3/T
     ------------------                 ------------------------

           IN:                                      IN:
           ---                                      ---
             STORAGE     =  4723289088.0000               STORAGE     =          20.9461
       CONSTANT HEAD     =           0.0000         CONSTANT HEAD     =           0.0000
     HEAD DEP BOUNDS     =    15818403.0000       HEAD DEP BOUNDS     =           0.2867
      STREAM LEAKAGE     =   673915136.0000        STREAM LEAKAGE     =          11.8559
        UZF RECHARGE     =  4414413824.0000          UZF RECHARGE     =          48.0150
               GW ET     =           0.0000                 GW ET     =           0.0000
     SURFACE LEAKAGE     =           0.0000       SURFACE LEAKAGE     =           0.0000
           AG WELLS      =           0.0000             AG WELLS      =           0.0000

                TOTAL IN =  9827436544.0000                  TOTAL IN =          81.1037

          OUT:                                     OUT:
          ----                                     ----
             STORAGE     =  3848401920.0000               STORAGE     =          71.0750
       CONSTANT HEAD     =           0.0000         CONSTANT HEAD     =           0.0000
     HEAD DEP BOUNDS     =    16084896.0000       HEAD DEP BOUNDS     =           0.2881
      STREAM LEAKAGE     =   580015872.0000        STREAM LEAKAGE     =           9.7391
        UZF RECHARGE     =           0.0000          UZF RECHARGE     =           0.0000
               GW ET     =     1320838.1250                 GW ET     =           0.0000
     SURFACE LEAKAGE     =           0.0000       SURFACE LEAKAGE     =           0.0000
           AG WELLS      =  5381544960.0000             AG WELLS      =           0.0000

               TOTAL OUT =  9827368960.0000                 TOTAL OUT =          81.1022

                IN - OUT =       67584.0000                  IN - OUT =       1.5411E-03

     PERCENT DISCREPANCY =           0.00         PERCENT DISCREPANCY =           0.00






         TIME SUMMARY AT END OF TIME STEP   30 IN STRESS PERIOD   22
                    SECONDS     MINUTES      HOURS       DAYS        YEARS
                    -----------------------------------------------------------
   TIME STEP LENGTH  87667.      1461.1      24.352      1.0147     2.77799E-03
 STRESS PERIOD TIME 2.63000E+06  43833.      730.56      30.440     8.33397E-02
         TOTAL TIME 5.53166E+07 9.21944E+05  15366.      640.24      1.7529    
1
1
                            STRESS PERIOD NO.   23, LENGTH =   2630000.    
                            -----------------------------------------------

                              NUMBER OF TIME STEPS =    30

                               MULTIPLIER FOR DELT =     1.000

                            INITIAL TIME STEP SIZE =   87666.66    

 REUSING NON-PARAMETER GHB CELLS FROM LAST STRESS PERIOD

      2 GHB CELLS

 REUSING STREAM SEGMENT DATA FROM LAST STRESS PERIOD



            AREAL INFILTRATION RATE
 READING ON UNIT   19 WITH FORMAT: (FREE)              

            1           2           3           4           5           6           7           8           9          10
 ........................................................................................................................
   1   1.0000E-10  2.0000E-10   0.000       0.000       0.000       0.000       0.000       0.000       0.000       0.000    
   2   2.0000E-10  1.0000E-10  2.0000E-10   0.000       0.000      8.0000E-10  8.0000E-10  5.0000E-10   0.000       0.000    
   3    0.000      5.0000E-10  1.0000E-10  1.0000E-10  8.0000E-10  8.0000E-10  5.0000E-10  5.0000E-10   0.000       0.000    
   4   8.0000E-10  5.0000E-10  1.0000E-10  1.0000E-10  1.0000E-10  1.0000E-10  1.0000E-10  1.0000E-10  2.0000E-10   0.000    
   5   8.0000E-10  5.0000E-10  1.0000E-10  1.0000E-10  1.0000E-10  1.0000E-10  1.0000E-10  1.0000E-10  1.0000E-10  1.0000E-10
   6   8.0000E-10  5.0000E-10  5.0000E-10  2.0000E-10  2.0000E-10  1.0000E-10  1.0000E-10  1.0000E-10  1.0000E-10  5.0000E-10
   7   8.0000E-10  5.0000E-10  5.0000E-10  2.0000E-10  2.0000E-10  1.0000E-10  1.0000E-10  2.0000E-10  2.0000E-10   0.000    
   8    0.000      5.0000E-10  5.0000E-10  2.0000E-10  2.0000E-10  1.0000E-10  1.0000E-10  2.0000E-10  5.0000E-10   0.000    
   9    0.000      5.0000E-10  5.0000E-10  2.0000E-10  2.0000E-10  1.0000E-10  1.0000E-10  2.0000E-10  5.0000E-10   0.000    
  10    0.000      5.0000E-10  5.0000E-10  2.0000E-10  2.0000E-10  1.0000E-10  1.0000E-10  2.0000E-10  5.0000E-10  8.0000E-10
  11    0.000      1.0000E-10  1.0000E-10  1.0000E-10  1.0000E-10  1.0000E-10  1.0000E-10  2.0000E-10  5.0000E-10   0.000    
  12   1.0000E-10  1.0000E-10  1.0000E-10  1.0000E-10  1.0000E-10  1.0000E-10  1.0000E-10  1.0000E-10  2.0000E-10   0.000    
  13   1.0000E-10  1.0000E-10  2.0000E-10  2.0000E-10  2.0000E-10  2.0000E-10  2.0000E-10  1.0000E-10  1.0000E-10   0.000    
  14    0.000      2.0000E-10  5.0000E-10  5.0000E-10  5.0000E-10  5.0000E-10  5.0000E-10  2.0000E-10  1.0000E-10   0.000    
  15    0.000       0.000      8.0000E-10  8.0000E-10  8.0000E-10  8.0000E-10   0.000       0.000       0.000       0.000    

                  ET RATE =  5.000000E-09

 USING ET EXTINCTION DEPTH FROM PREVIOUS STRESS PERIOD. CURRENT PERIOD IS:      23

 USING EXTINCTION WATER CONTENT FROM PREVIOUS STRESS PERIOD. CURRENT PERIOD IS:      23

 USING AIR ENTRY PRESSURE FROM PREVIOUS STRESS PERIOD. CURRENT PERIOD IS:      23

 USING ROOT PRESSURE HEAD FROM PREVIOUS STRESS PERIOD. CURRENT PERIOD IS:      23

 USING ROOT ACTIVITY FROM PREVIOUS STRESS PERIOD. CURRENT PERIOD IS:      23

 PROCESSING AG STRESS PERIOD DATA

 READING AG STRESS PERIOD DATA

 READING IRRIGATION SEGMENT

 READING IRRIGATION WELL

 READING SUPPLEMENTAL WELL

 NO IRRPOND OR REUSING IRRPOND DATA FROM LAST STRESS PERIOD

 END PROCESSING AG STRESS PERIOD DATA OPTIONS
 
 SOLVING FOR HEAD 
                                                   Max.-Head-Change                         Max.-Flux-Residual
  Residual-Control   Outer-Iter.   Inner-Iter.     Column Row Layer    Maximum-Head-Change  Column Row Layer    Maximum-Flux-Residual          L2-NORM 
          0                 1           2             5    8     1       0.3941026839E+00       5    8    1         0.2164079580E+02      0.2399699010E+02
          0                 2           2             5    8     1       0.1685137505E+00       5    8    1         0.9311201133E+01      0.9368740270E+01
          0                 3           2             5    8     1       0.7205364566E-01       5    8    1         0.3975742647E+01      0.3976467819E+01
          0                 4           2             5    8     1       0.3080902922E-01       5    8    1         0.1700297518E+01      0.1700303663E+01
          0                 5           2             5    8     1       0.1317347498E-01       5    8    1         0.7270146368E+00      0.7270179007E+00
          0                 6           1             5    8     1       0.5632780506E-02       5    8    1         0.3108613655E+00      0.3108626996E+00
          0                 7           1             5    8     1       0.2408492869E-02       5    8    1         0.1329197932E+00      0.1329203646E+00
          0                 8           1             5    8     1       0.1029835661E-02       5    8    1         0.5683454225E-01      0.5683478820E-01
          0                 9           1             5    8     1       0.4403423936E-03       5    8    1         0.2430160810E-01      0.2430171610E-01
          0                10           1             5    8     1       0.1882838529E-03       5    8    1         0.1039100672E-01      0.1039105137E-01
          0                11           1             5    8     1       0.8050737297E-04       5    8    1         0.4443040018E-02      0.4443059097E-02

    ------------------------------------------------
       NWT REQUIRED           11 OUTER ITERATIONS 
       AND A TOTAL OF         16 INNER ITERATIONS.
    ------------------------------------------------

 NO OUTPUT CONTROL FOR STRESS PERIOD   23   TIME STEP    1
 
 SOLVING FOR HEAD 
                                                   Max.-Head-Change                         Max.-Flux-Residual
  Residual-Control   Outer-Iter.   Inner-Iter.     Column Row Layer    Maximum-Head-Change  Column Row Layer    Maximum-Flux-Residual          L2-NORM 
          0                 1           2             5    8     1       0.3120115533E+00       5    8    1         0.1701258205E+02      0.2157228578E+02
          0                 2           2             5    8     1       0.1348506068E+00       5    8    1         0.7383891997E+01      0.8618140665E+01
          0                 3           2             5    8     1       0.5830658098E-01       5    8    1         0.3188274050E+01      0.3740201044E+01
          0                 4           2             5    8     1       0.2522129384E-01       5    8    1         0.1378858220E+01      0.1634129545E+01
          0                 5           2             5    8     1       0.1091442321E-01       5    8    1         0.5964858983E+00      0.7143834774E+00
          0                 6           2             5    8     1       0.4725162659E-02       5    8    1         0.2581480973E+00      0.3124645053E+00
          0                 7           2             5    8     1       0.2046510969E-02       5    8    1         0.1117684746E+00      0.1367352002E+00
          0                 8           2             5    8     1       0.8867300112E-03       5    8    1         0.4841174145E-01      0.5986305910E-01
          0                 9           2             5    8     1       0.3843680709E-03       5    8    1         0.2097788924E-01      0.2621955764E-01
          0                10           2             5    8     1       0.1666787309E-03       5    8    1         0.9093919910E-02      0.1148864653E-01
          0                11           1             5    8     1       0.7230833217E-04       5    8    1         0.3943820386E-02      0.5035921640E-02

    ------------------------------------------------
       NWT REQUIRED           11 OUTER ITERATIONS 
       AND A TOTAL OF         21 INNER ITERATIONS.
    ------------------------------------------------

 NO OUTPUT CONTROL FOR STRESS PERIOD   23   TIME STEP    2
 
 SOLVING FOR HEAD 
                                                   Max.-Head-Change                         Max.-Flux-Residual
  Residual-Control   Outer-Iter.   Inner-Iter.     Column Row Layer    Maximum-Head-Change  Column Row Layer    Maximum-Flux-Residual          L2-NORM 
          0                 1           2             5    7     1       0.3988233970E+00       5    7    1         0.2149357026E+02      0.3884386314E+02
          0                 2           2             5    7     1       0.1757224204E+00       5    7    1         0.9463480721E+01      0.1727267699E+02
          0                 3           2             5    7     1       0.7751184282E-01       5    7    1         0.4170246443E+01      0.7758331493E+01
          0                 4           2             5    8     1       0.3574932279E-01       5    8    1         0.1916180508E+01      0.3496855939E+01
          0                 5           2             5    8     1       0.1683044209E-01       5    8    1         0.9036037664E+00      0.1578632952E+01
          0                 6           2             5    8     1       0.7908927466E-02       5    8    1         0.4252603852E+00      0.7139058534E+00
          0                 7           2             5    8     1       0.3710364884E-02       5    8    1         0.1997736073E+00      0.3233665581E+00
          0                 8           2             5    8     1       0.1738058804E-02       5    8    1         0.9369423815E-01      0.1466920543E+00
          0                 9           2             5    8     1       0.8130626269E-03       5    8    1         0.4387815862E-01      0.6663942600E-01
          0                10           2             5    8     1       0.3798835730E-03       5    8    1         0.2052136626E-01      0.3031279221E-01
                                                   Max.-Head-Change                         Max.-Flux-Residual
  Residual-Control   Outer-Iter.   Inner-Iter.     Column Row Layer    Maximum-Head-Change  Column Row Layer    Maximum-Flux-Residual          L2-NORM 
          0                11           2             5    8     1       0.1772935213E-03       5    8    1         0.9586068382E-02      0.1380535584E-01
          0                12           1             5    8     1       0.8265981123E-04       5    8    1         0.4473000489E-02      0.6294397801E-02

    ------------------------------------------------
       NWT REQUIRED           12 OUTER ITERATIONS 
       AND A TOTAL OF         23 INNER ITERATIONS.
    ------------------------------------------------

 NO OUTPUT CONTROL FOR STRESS PERIOD   23   TIME STEP    3
 
 SOLVING FOR HEAD 
                                                   Max.-Head-Change                         Max.-Flux-Residual
  Residual-Control   Outer-Iter.   Inner-Iter.     Column Row Layer    Maximum-Head-Change  Column Row Layer    Maximum-Flux-Residual          L2-NORM 
          0                 1           2             5    8     1       0.3971407896E+00       5    8    1         0.2127708484E+02      0.4119395292E+02
          0                 2           2             5    8     1       0.1818713839E+00       5    8    1         0.9753336004E+01      0.1853690172E+02
          0                 3           2             4    8     1       0.8428462507E-01       4    8    1         0.4505443131E+01      0.8411494746E+01
          0                 4           2             4    8     1       0.3985324282E-01       4    8    1         0.2131470240E+01      0.3827157406E+01
          0                 5           2             4    8     1       0.1883361554E-01       4    8    1         0.1007745664E+01      0.1744481273E+01
          0                 6           2             4    8     1       0.8895523994E-02       4    8    1         0.4761892790E+00      0.7965877038E+00
          0                 7           2             4    8     1       0.4199420608E-02       4    8    1         0.2248940789E+00      0.3643754232E+00
          0                 8           2             4    8     1       0.1981520962E-02       4    8    1         0.1061593703E+00      0.1669484794E+00
          0                 9           2             4    8     1       0.9345664602E-03       4    8    1         0.5008780154E-01      0.7661265699E-01
          0                10           2             4    8     1       0.4405894309E-03       4    8    1         0.2362161668E-01      0.3521017194E-01
                                                   Max.-Head-Change                         Max.-Flux-Residual
  Residual-Control   Outer-Iter.   Inner-Iter.     Column Row Layer    Maximum-Head-Change  Column Row Layer    Maximum-Flux-Residual          L2-NORM 
          0                11           2             4    8     1       0.2076251142E-03       4    8    1         0.1113528486E-01      0.1620499606E-01
          0                12           1             4    8     1       0.9780404541E-04       4    8    1         0.5247066673E-02      0.7468025517E-02

    ------------------------------------------------
       NWT REQUIRED           12 OUTER ITERATIONS 
       AND A TOTAL OF         23 INNER ITERATIONS.
    ------------------------------------------------

 NO OUTPUT CONTROL FOR STRESS PERIOD   23   TIME STEP    4
 
 SOLVING FOR HEAD 
                                                   Max.-Head-Change                         Max.-Flux-Residual
  Residual-Control   Outer-Iter.   Inner-Iter.     Column Row Layer    Maximum-Head-Change  Column Row Layer    Maximum-Flux-Residual          L2-NORM 
          0                 1           2             5    7     1       0.4945789125E+00       5    7    1         0.2639128092E+02      0.5099168191E+02
          0                 2           2             5    7     1       0.2345212808E+00       5    7    1         0.1251255503E+02      0.2388579642E+02
          0                 3           2             5    7     1       0.1111563953E+00       5    7    1         0.5933412781E+01      0.1119032136E+02
          0                 4           2             5    7     1       0.5266144968E-01       5    7    1         0.2812017228E+01      0.5248764103E+01
          0                 5           2             5    7     1       0.2493904818E-01       5    7    1         0.1332124731E+01      0.2463437027E+01
          0                 6           2             5    7     1       0.1180634585E-01       5    7    1         0.6308167000E+00      0.1156867206E+01
          0                 7           2             5    7     1       0.5587495920E-02       5    7    1         0.2986161136E+00      0.5435770171E+00
          0                 8           2             5    7     1       0.2643629209E-02       5    7    1         0.1413162913E+00      0.2555376323E+00
          0                 9           2             5    7     1       0.1250487128E-02       5    7    1         0.6685831306E-01      0.1201840762E+00
          0                10           2             5    7     1       0.5913784358E-03       5    7    1         0.3162396168E-01      0.5654846437E-01
                                                   Max.-Head-Change                         Max.-Flux-Residual
  Residual-Control   Outer-Iter.   Inner-Iter.     Column Row Layer    Maximum-Head-Change  Column Row Layer    Maximum-Flux-Residual          L2-NORM 
          0                11           2             5    7     1       0.2796212507E-03       5    7    1         0.1495501252E-01      0.2661714080E-01
          0                12           2             5    7     1       0.1321913234E-03       5    7    1         0.7070946690E-02      0.1253299306E-01
          0                13           1             5    7     1       0.6248460205E-04       5    7    1         0.3342705216E-02      0.5903210414E-02

    ------------------------------------------------
       NWT REQUIRED           13 OUTER ITERATIONS 
       AND A TOTAL OF         25 INNER ITERATIONS.
    ------------------------------------------------

 NO OUTPUT CONTROL FOR STRESS PERIOD   23   TIME STEP    5
 
 SOLVING FOR HEAD 
                                                   Max.-Head-Change                         Max.-Flux-Residual
  Residual-Control   Outer-Iter.   Inner-Iter.     Column Row Layer    Maximum-Head-Change  Column Row Layer    Maximum-Flux-Residual          L2-NORM 
          0                 1           2             4    7     1       0.5058230413E+00       4    7    1         0.2659400919E+02      0.5317817086E+02
          0                 2           2             4    7     1       0.2372749196E+00       4    7    1         0.1247323842E+02      0.2483499379E+02
          0                 3           2             4    7     1       0.1113124153E+00       4    7    1         0.5851251937E+01      0.1161658901E+02
          0                 4           2             4    7     1       0.5222369581E-01       4    7    1         0.2745036667E+01      0.5436255706E+01
          0                 5           2             4    7     1       0.2450293828E-01       4    7    1         0.1287889262E+01      0.2544877798E+01
          0                 6           2             4    7     1       0.1149715671E-01       4    7    1         0.6042740402E+00      0.1191709393E+01
          0                 7           2             4    7     1       0.5394862113E-02       4    6    1         0.2844178543E+00      0.5582118343E+00
          0                 8           2             4    6     1       0.2547603883E-02       4    6    1         0.1354868006E+00      0.2615431948E+00
          0                 9           2             4    6     1       0.1212196027E-02       4    6    1         0.6449928163E-01      0.1225729731E+00
          0                10           2             4    6     1       0.5764559615E-03       4    6    1         0.3068670571E-01      0.5745726676E-01
                                                   Max.-Head-Change                         Max.-Flux-Residual
  Residual-Control   Outer-Iter.   Inner-Iter.     Column Row Layer    Maximum-Head-Change  Column Row Layer    Maximum-Flux-Residual          L2-NORM 
          0                11           2             4    6     1       0.2739859480E-03       4    6    1         0.1459153784E-01      0.2693933647E-01
          0                12           2             4    6     1       0.1301590589E-03       4    6    1         0.6934634020E-02      0.1263321529E-01
          0                13           1             4    6     1       0.6180429601E-04       4    6    1         0.3294067858E-02      0.5925430668E-02

    ------------------------------------------------
       NWT REQUIRED           13 OUTER ITERATIONS 
       AND A TOTAL OF         25 INNER ITERATIONS.
    ------------------------------------------------

 NO OUTPUT CONTROL FOR STRESS PERIOD   23   TIME STEP    6
 
 SOLVING FOR HEAD 
                                                   Max.-Head-Change                         Max.-Flux-Residual
  Residual-Control   Outer-Iter.   Inner-Iter.     Column Row Layer    Maximum-Head-Change  Column Row Layer    Maximum-Flux-Residual          L2-NORM 
          0                 1           2             4    6     1       0.4806761719E+00       4    6    1         0.2559490206E+02      0.4830552279E+02
          0                 2           2             4    6     1       0.2220640167E+00       4    6    1         0.1182091823E+02      0.2204997431E+02
          0                 3           2             4    6     1       0.1025729537E+00       4    6    1         0.5461336225E+01      0.1008878530E+02
          0                 4           2             4    6     1       0.4737215962E-01       4    6    1         0.2522536748E+01      0.4621003965E+01
          0                 5           2             4    6     1       0.2187533022E-01       4    6    1         0.1164978455E+01      0.2118024468E+01
          0                 6           2             4    6     1       0.1010024989E-01       4    6    1         0.5379465965E+00      0.9714157534E+00
          0                 7           2             4    6     1       0.4662943694E-02       4    6    1         0.2483747010E+00      0.4457882340E+00
          0                 8           2             4    7     1       0.2170297517E-02       4    6    1         0.1146639239E+00      0.2046804960E+00
          0                 9           2             4    7     1       0.1012350514E-02       4    7    1         0.5347357039E-01      0.9402113741E-01
          0                10           2             4    7     1       0.4718605419E-03       4    7    1         0.2493957390E-01      0.4320706478E-01
                                                   Max.-Head-Change                         Max.-Flux-Residual
  Residual-Control   Outer-Iter.   Inner-Iter.     Column Row Layer    Maximum-Head-Change  Column Row Layer    Maximum-Flux-Residual          L2-NORM 
          0                11           2             4    7     1       0.2197816851E-03       4    7    1         0.1162290014E-01      0.1986301890E-01
          0                12           1             4    7     1       0.1023025210E-03       4    7    1         0.5413014546E-02      0.9134396285E-02
          0                13           1             4    7     1       0.4759028032E-04       4    7    1         0.2519327708E-02      0.4201873825E-02

    ------------------------------------------------
       NWT REQUIRED           13 OUTER ITERATIONS 
       AND A TOTAL OF         24 INNER ITERATIONS.
    ------------------------------------------------

 NO OUTPUT CONTROL FOR STRESS PERIOD   23   TIME STEP    7
 
 SOLVING FOR HEAD 
                                                   Max.-Head-Change                         Max.-Flux-Residual
  Residual-Control   Outer-Iter.   Inner-Iter.     Column Row Layer    Maximum-Head-Change  Column Row Layer    Maximum-Flux-Residual          L2-NORM 
          0                 1           2             4    6     1       0.4298420028E+00       4    6    1         0.2293097968E+02      0.4154549565E+02
          0                 2           2             4    6     1       0.1929791579E+00       4    6    1         0.1029493065E+02      0.1864028983E+02
          0                 3           2             4    6     1       0.8606817219E-01       4    6    1         0.4589782711E+01      0.8368038327E+01
          0                 4           2             4    6     1       0.3840169960E-01       4    6    1         0.2047212995E+01      0.3759340567E+01
          0                 5           2             4    6     1       0.1714058632E-01       4    6    1         0.9134872574E+00      0.1689068491E+01
          0                 6           2             4    6     1       0.7653503273E-02       4    6    1         0.4077636660E+00      0.7589953751E+00
          0                 7           2             4    6     1       0.3418586605E-02       4    6    1         0.1820841258E+00      0.3410983379E+00
          0                 8           2             4    6     1       0.1527486149E-02       4    6    1         0.8133658902E-01      0.1533076158E+00
          0                 9           2             4    6     1       0.6827242511E-03       4    6    1         0.3634484563E-01      0.6891072455E-01
          0                10           2             4    7     1       0.3054368609E-03       4    6    1         0.1624560044E-01      0.3097738321E-01
                                                   Max.-Head-Change                         Max.-Flux-Residual
  Residual-Control   Outer-Iter.   Inner-Iter.     Column Row Layer    Maximum-Head-Change  Column Row Layer    Maximum-Flux-Residual          L2-NORM 
          0                11           2             4    7     1       0.1384599043E-03       4    7    1         0.7287070527E-02      0.1392623697E-01
          0                12           1             4    7     1       0.6273817813E-04       4    7    1         0.3303073982E-02      0.6261100910E-02

    ------------------------------------------------
       NWT REQUIRED           12 OUTER ITERATIONS 
       AND A TOTAL OF         23 INNER ITERATIONS.
    ------------------------------------------------

 NO OUTPUT CONTROL FOR STRESS PERIOD   23   TIME STEP    8
 
 SOLVING FOR HEAD 
                                                   Max.-Head-Change                         Max.-Flux-Residual
  Residual-Control   Outer-Iter.   Inner-Iter.     Column Row Layer    Maximum-Head-Change  Column Row Layer    Maximum-Flux-Residual          L2-NORM 
          0                 1           2             4    7     1       0.3526591382E+00       4    7    1         0.1858440984E+02      0.3584537986E+02
          0                 2           2             4    7     1       0.1594064614E+00       4    7    1         0.8410328014E+01      0.1570461421E+02
          0                 3           2             4    7     1       0.7198148387E-01       4    7    1         0.3800637876E+01      0.6930694149E+01
          0                 4           2             4    7     1       0.3247371997E-01       4    7    1         0.1715924777E+01      0.3064696616E+01
          0                 5           2             4    7     1       0.1463753819E-01       4    7    1         0.7739946761E+00      0.1356270441E+01
          0                 6           2             4    7     1       0.6592574445E-02       4    7    1         0.3488246946E+00      0.6006731805E+00
          0                 7           2             4    7     1       0.2966998530E-02       4    7    1         0.1570839708E+00      0.2662081365E+00
          0                 8           2             4    7     1       0.1334373454E-02       4    7    1         0.7068642425E-01      0.1180489900E+00
          0                 9           2             4    7     1       0.5997303987E-03       4    7    1         0.3178643904E-01      0.5237581557E-01
          0                10           2             4    7     1       0.2693845282E-03       4    7    1         0.1428466420E-01      0.2324877675E-01
                                                   Max.-Head-Change                         Max.-Flux-Residual
  Residual-Control   Outer-Iter.   Inner-Iter.     Column Row Layer    Maximum-Head-Change  Column Row Layer    Maximum-Flux-Residual          L2-NORM 
          0                11           1             4    7     1       0.1209330645E-03       4    7    1         0.6415633432E-02      0.1032396239E-01
          0                12           1             4    7     1       0.5426126470E-04       4    7    1         0.2879838027E-02      0.4586154123E-02

    ------------------------------------------------
       NWT REQUIRED           12 OUTER ITERATIONS 
       AND A TOTAL OF         22 INNER ITERATIONS.
    ------------------------------------------------

 NO OUTPUT CONTROL FOR STRESS PERIOD   23   TIME STEP    9
 
 SOLVING FOR HEAD 
                                                   Max.-Head-Change                         Max.-Flux-Residual
  Residual-Control   Outer-Iter.   Inner-Iter.     Column Row Layer    Maximum-Head-Change  Column Row Layer    Maximum-Flux-Residual          L2-NORM 
          0                 1           2             4    6     1       0.3236048361E+00       4    6    1         0.1726349731E+02      0.3101249637E+02
          0                 2           2             4    6     1       0.1439715479E+00       4    6    1         0.7696433146E+01      0.1339359324E+02
          0                 3           2             4    6     1       0.6402164120E-01       4    6    1         0.3422605304E+01      0.5854651216E+01
          0                 4           2             4    6     1       0.2774435320E-01       4    6    1         0.1483046880E+01      0.2541305535E+01
          0                 5           2             4    6     1       0.1188731578E-01       4    6    1         0.6351760692E+00      0.1098739765E+01
          0                 6           2             4    6     1       0.5095586013E-02       4    6    1         0.2721719136E+00      0.4751200357E+00
          0                 7           2             4    6     1       0.2185227506E-02       4    6    1         0.1166786762E+00      0.2054808670E+00
          0                 8           2             4    6     1       0.9375247723E-03       4    6    1         0.5004147501E-01      0.8887770304E-01
          0                 9           2             4    6     1       0.4023871792E-03       4    6    1         0.2147091826E-01      0.3844694499E-01
          0                10           2             4    6     1       0.1727717967E-03       4    6    1         0.9216050490E-02      0.1663310462E-01
          0                11           1             4    6     1       0.7420987279E-04       4    6    1         0.3957353941E-02      0.7196523392E-02

    ------------------------------------------------
       NWT REQUIRED           11 OUTER ITERATIONS 
       AND A TOTAL OF         21 INNER ITERATIONS.
    ------------------------------------------------

 NO OUTPUT CONTROL FOR STRESS PERIOD   23   TIME STEP   10
 
 SOLVING FOR HEAD 
                                                   Max.-Head-Change                         Max.-Flux-Residual
  Residual-Control   Outer-Iter.   Inner-Iter.     Column Row Layer    Maximum-Head-Change  Column Row Layer    Maximum-Flux-Residual          L2-NORM 
          0                 1           2             4    7     1       0.2737340625E+00       4    7    1         0.1441413216E+02      0.2784865903E+02
          0                 2           2             4    7     1       0.1190252225E+00       4    7    1         0.6281608869E+01      0.1165157834E+02
          0                 3           2             4    7     1       0.5174163157E-01       4    7    1         0.2733119293E+01      0.4968170867E+01
          0                 4           2             4    7     1       0.2246707553E-01       4    7    1         0.1187865991E+01      0.2124865693E+01
          0                 5           2             4    7     1       0.9745668221E-02       4    7    1         0.5156837789E+00      0.9092355907E+00
          0                 6           2             4    7     1       0.4223592156E-02       4    7    1         0.2236495999E+00      0.3892620355E+00
          0                 7           2             4    7     1       0.1828935939E-02       4    7    1         0.9690947315E-01      0.1667229698E+00
          0                 8           2             4    7     1       0.7914020587E-03       4    7    1         0.4195829682E-01      0.7143537975E-01
          0                 9           2             4    7     1       0.3422234845E-03       4    7    1         0.1815340687E-01      0.3061788921E-01
          0                10           2             4    7     1       0.1478987674E-03       4    7    1         0.7849069271E-02      0.1312693613E-01
          0                11           1             4    7     1       0.6388316497E-04       4    7    1         0.3391762454E-02      0.5629403435E-02

    ------------------------------------------------
       NWT REQUIRED           11 OUTER ITERATIONS 
       AND A TOTAL OF         21 INNER ITERATIONS.
    ------------------------------------------------

 NO OUTPUT CONTROL FOR STRESS PERIOD   23   TIME STEP   11
 
 SOLVING FOR HEAD 
                                                   Max.-Head-Change                         Max.-Flux-Residual
  Residual-Control   Outer-Iter.   Inner-Iter.     Column Row Layer    Maximum-Head-Change  Column Row Layer    Maximum-Flux-Residual          L2-NORM 
          0                 1           2             4    7     1       0.2527273663E+00       4    7    1         0.1336245006E+02      0.2464872435E+02
          0                 2           2             4    7     1       0.1051091653E+00       4    7    1         0.5558471009E+01      0.1003585325E+02
          0                 3           2             4    7     1       0.4374680634E-01       4    6    1         0.2318015524E+01      0.4205988910E+01
          0                 4           2             4    6     1       0.1867003142E-01       4    6    1         0.9961326226E+00      0.1769539915E+01
          0                 5           2             4    6     1       0.8008981302E-02       4    6    1         0.4276150716E+00      0.7446995838E+00
          0                 6           2             4    6     1       0.3432866036E-02       4    6    1         0.1834064389E+00      0.3135217638E+00
          0                 7           2             4    6     1       0.1470322857E-02       4    6    1         0.7860112160E-01      0.1320384299E+00
          0                 8           2             4    6     1       0.6293188154E-03       4    6    1         0.3366079985E-01      0.5562481987E-01
          0                 9           2             4    6     1       0.2691870053E-03       4    6    1         0.1440545509E-01      0.2344025602E-01
          0                10           2             4    6     1       0.1150757225E-03       4    6    1         0.6161112760E-02      0.9880352683E-02
          0                11           1             4    6     1       0.4916757410E-04       4    6    1         0.2633549093E-02      0.4165725447E-02

    ------------------------------------------------
       NWT REQUIRED           11 OUTER ITERATIONS 
       AND A TOTAL OF         21 INNER ITERATIONS.
    ------------------------------------------------

 NO OUTPUT CONTROL FOR STRESS PERIOD   23   TIME STEP   12
 
 SOLVING FOR HEAD 
                                                   Max.-Head-Change                         Max.-Flux-Residual
  Residual-Control   Outer-Iter.   Inner-Iter.     Column Row Layer    Maximum-Head-Change  Column Row Layer    Maximum-Flux-Residual          L2-NORM 
          0                 1           2             4    6     1       0.2233585486E+00       4    6    1         0.1189822854E+02      0.2186273385E+02
          0                 2           2             4    6     1       0.9169362718E-01       4    6    1         0.4903647080E+01      0.8641268297E+01
          0                 3           2             4    6     1       0.3766068912E-01       4    6    1         0.2011259062E+01      0.3563753358E+01
          0                 4           2             4    6     1       0.1547535535E-01       4    6    1         0.8262714967E+00      0.1476923057E+01
          0                 5           2             4    6     1       0.6361882617E-02       4    6    1         0.3395543493E+00      0.6120810141E+00
          0                 6           2             4    6     1       0.2616457079E-02       4    6    1         0.1396023197E+00      0.2536936532E+00
          0                 7           2             4    7     1       0.1079569202E-02       4    6    1         0.5741906498E-01      0.1051588197E+00
          0                 8           2             4    7     1       0.4506339502E-03       4    7    1         0.2376191296E-01      0.4359270231E-01
          0                 9           2             4    7     1       0.1880247734E-03       4    7    1         0.9917843804E-02      0.1807215786E-01
          0                10           1             4    7     1       0.7842201012E-04       4    7    1         0.4137840686E-02      0.7492574677E-02

    ------------------------------------------------
       NWT REQUIRED           10 OUTER ITERATIONS 
       AND A TOTAL OF         19 INNER ITERATIONS.
    ------------------------------------------------

 NO OUTPUT CONTROL FOR STRESS PERIOD   23   TIME STEP   13
 
 SOLVING FOR HEAD 
                                                   Max.-Head-Change                         Max.-Flux-Residual
  Residual-Control   Outer-Iter.   Inner-Iter.     Column Row Layer    Maximum-Head-Change  Column Row Layer    Maximum-Flux-Residual          L2-NORM 
          0                 1           2             4    7     1       0.1966356850E+00       4    7    1         0.1037154882E+02      0.1991228139E+02
          0                 2           2             4    7     1       0.8192397475E-01       4    7    1         0.4327343612E+01      0.7754492760E+01
          0                 3           2             4    7     1       0.3412350524E-01       4    7    1         0.1802309783E+01      0.3196261181E+01
          0                 4           2             4    7     1       0.1421007838E-01       4    7    1         0.7507078238E+00      0.1325605649E+01
          0                 5           2             4    7     1       0.5916230435E-02       4    7    1         0.3126032377E+00      0.5497275669E+00
          0                 6           2             4    7     1       0.2462662076E-02       4    7    1         0.1301440878E+00      0.2279821049E+00
          0                 7           2             4    7     1       0.1024898305E-02       4    7    1         0.5417104973E-01      0.9455004163E-01
          0                 8           2             4    7     1       0.4264594392E-03       4    7    1         0.2254380416E-01      0.3921304203E-01
          0                 9           2             4    7     1       0.1774190323E-03       4    7    1         0.9380134123E-02      0.1626320891E-01
          0                10           1             4    7     1       0.7379933564E-04       4    7    1         0.3902269550E-02      0.6745095491E-02

    ------------------------------------------------
       NWT REQUIRED           10 OUTER ITERATIONS 
       AND A TOTAL OF         19 INNER ITERATIONS.
    ------------------------------------------------

 NO OUTPUT CONTROL FOR STRESS PERIOD   23   TIME STEP   14
 
 SOLVING FOR HEAD 
                                                   Max.-Head-Change                         Max.-Flux-Residual
  Residual-Control   Outer-Iter.   Inner-Iter.     Column Row Layer    Maximum-Head-Change  Column Row Layer    Maximum-Flux-Residual          L2-NORM 
          0                 1           2             4    7     1       0.1899287245E+00       4    7    1         0.1006815272E+02      0.1831011556E+02
          0                 2           2             4    7     1       0.7859936489E-01       4    7    1         0.4174692727E+01      0.6919700827E+01
          0                 3           2             4    7     1       0.3250621947E-01       4    7    1         0.1726873961E+01      0.2815442081E+01
          0                 4           2             4    7     1       0.1343576983E-01       4    7    1         0.7141285088E+00      0.1155055358E+01
          0                 5           2             4    7     1       0.5550513915E-02       4    7    1         0.2951367146E+00      0.4739840767E+00
          0                 6           2             4    7     1       0.2291930803E-02       4    7    1         0.1219133814E+00      0.1945676449E+00
          0                 7           2             4    7     1       0.9459933307E-03       4    7    1         0.5033628848E-01      0.7989022661E-01
          0                 8           2             4    7     1       0.3903114555E-03       4    7    1         0.2077462229E-01      0.3281103957E-01
          0                 9           2             4    7     1       0.1609858111E-03       4    7    1         0.8570875717E-02      0.1347836628E-01
          0                10           1             4    7     1       0.6637914901E-04       4    7    1         0.3534870025E-02      0.5537762294E-02

    ------------------------------------------------
       NWT REQUIRED           10 OUTER ITERATIONS 
       AND A TOTAL OF         19 INNER ITERATIONS.
    ------------------------------------------------

 NO OUTPUT CONTROL FOR STRESS PERIOD   23   TIME STEP   15
 
 SOLVING FOR HEAD 
                                                   Max.-Head-Change                         Max.-Flux-Residual
  Residual-Control   Outer-Iter.   Inner-Iter.     Column Row Layer    Maximum-Head-Change  Column Row Layer    Maximum-Flux-Residual          L2-NORM 
          0                 1           2             4    7     1       0.1557100807E+00       4    7    1         0.8229752133E+01      0.1625573632E+02
          0                 2           2             4    7     1       0.6167431771E-01       4    7    1         0.3263355555E+01      0.5833573297E+01
          0                 3           2             4    6     1       0.2500167079E-01       4    6    1         0.1335411814E+01      0.2317582156E+01
          0                 4           2             4    6     1       0.1025904459E-01       4    6    1         0.5485049454E+00      0.9314677731E+00
          0                 5           2             4    6     1       0.4206199010E-02       4    6    1         0.2250259320E+00      0.3745076617E+00
          0                 6           2             4    6     1       0.1723243370E-02       4    6    1         0.9224621265E-01      0.1506456736E+00
          0                 7           2             4    6     1       0.7055099996E-03       4    6    1         0.3778700302E-01      0.6062133390E-01
          0                 8           2             4    6     1       0.2886574045E-03       4    6    1         0.1546824724E-01      0.2440380358E-01
          0                 9           2             4    6     1       0.1180337202E-03       4    6    1         0.6328009517E-02      0.9827478200E-02
          0                10           1             4    6     1       0.4823836168E-04       4    6    1         0.2587265457E-02      0.3958853986E-02

    ------------------------------------------------
       NWT REQUIRED           10 OUTER ITERATIONS 
       AND A TOTAL OF         19 INNER ITERATIONS.
    ------------------------------------------------

 NO OUTPUT CONTROL FOR STRESS PERIOD   23   TIME STEP   16
 
 SOLVING FOR HEAD 
                                                   Max.-Head-Change                         Max.-Flux-Residual
  Residual-Control   Outer-Iter.   Inner-Iter.     Column Row Layer    Maximum-Head-Change  Column Row Layer    Maximum-Flux-Residual          L2-NORM 
          0                 1           2             4    6     1       0.1412764867E+00       4    6    1         0.7508462008E+01      0.1511131761E+02
          0                 2           2             4    6     1       0.5785513697E-01       4    6    1         0.3103380804E+01      0.5277274451E+01
          0                 3           2             4    6     1       0.2315164739E-01       4    6    1         0.1239378703E+01      0.2071200284E+01
          0                 4           2             4    6     1       0.9035081969E-02       4    6    1         0.4835993119E+00      0.8167088846E+00
          0                 5           2             4    6     1       0.3528031003E-02       4    6    1         0.1887448455E+00      0.3221128568E+00
          0                 6           2             4    6     1       0.1378388924E-02       4    6    1         0.7371021243E-01      0.1270782950E+00
          0                 7           2             4    6     1       0.5388149009E-03       4    6    1         0.2880150993E-01      0.5014428662E-01
          0                 8           2             4    6     1       0.2107296077E-03       4    6    1         0.1125976256E-01      0.1979007849E-01
          0                 9           1             4    6     1       0.8245559306E-04       4    6    1         0.4404120592E-02      0.7811573640E-02

    ------------------------------------------------
       NWT REQUIRED            9 OUTER ITERATIONS 
       AND A TOTAL OF         17 INNER ITERATIONS.
    ------------------------------------------------

 NO OUTPUT CONTROL FOR STRESS PERIOD   23   TIME STEP   17
 
 SOLVING FOR HEAD 
                                                   Max.-Head-Change                         Max.-Flux-Residual
  Residual-Control   Outer-Iter.   Inner-Iter.     Column Row Layer    Maximum-Head-Change  Column Row Layer    Maximum-Flux-Residual          L2-NORM 
          0                 1           2             4    7     1       0.1272432989E+00       4    7    1         0.6726967381E+01      0.1358565452E+02
          0                 2           2             4    7     1       0.5031600043E-01       4    7    1         0.2666582220E+01      0.4469138135E+01
          0                 3           2             4    7     1       0.1989490862E-01       4    7    1         0.1053839634E+01      0.1733095900E+01
          0                 4           2             4    7     1       0.7865863932E-02       4    7    1         0.4167193603E+00      0.6846554252E+00
          0                 5           2             4    7     1       0.3109730075E-02       4    7    1         0.1647548717E+00      0.2704835281E+00
          0                 6           2             4    7     1       0.1229344777E-02       4    7    1         0.6513426707E-01      0.1068656527E+00
          0                 7           2             4    7     1       0.4859617859E-03       4    7    1         0.2574871565E-01      0.4222195492E-01
          0                 8           2             4    7     1       0.1920924712E-03       4    7    1         0.1017840117E-01      0.1668180461E-01
          0                 9           1             4    7     1       0.7592774761E-04       4    7    1         0.4023312971E-02      0.6591001145E-02

    ------------------------------------------------
       NWT REQUIRED            9 OUTER ITERATIONS 
       AND A TOTAL OF         17 INNER ITERATIONS.
    ------------------------------------------------

 NO OUTPUT CONTROL FOR STRESS PERIOD   23   TIME STEP   18
 
 SOLVING FOR HEAD 
                                                   Max.-Head-Change                         Max.-Flux-Residual
  Residual-Control   Outer-Iter.   Inner-Iter.     Column Row Layer    Maximum-Head-Change  Column Row Layer    Maximum-Flux-Residual          L2-NORM 
          0                 1           2             4    7     1       0.1230987125E+00       4    7    1         0.6505831212E+01      0.1337088413E+02
          0                 2           2             4    7     1       0.4868896590E-01       4    7    1         0.2579929977E+01      0.4363852641E+01
          0                 3           2             4    7     1       0.1925643590E-01       4    7    1         0.1019807451E+01      0.1690699965E+01
          0                 4           2             4    7     1       0.7615696945E-02       4    7    1         0.4033667991E+00      0.6681110090E+00
          0                 5           2             4    7     1       0.3011810442E-02       4    7    1         0.1595249198E+00      0.2640144618E+00
          0                 6           2             4    7     1       0.1191045921E-02       4    7    1         0.6308752215E-01      0.1043361362E+00
          0                 7           2             4    7     1       0.4709918189E-03       4    7    1         0.2494829920E-01      0.4123285791E-01
          0                 8           2             4    7     1       0.1862444116E-03       4    7    1         0.9865580414E-02      0.1629505607E-01
          0                 9           1             4    7     1       0.7364430131E-04       4    7    1         0.3901122200E-02      0.6439787002E-02

    ------------------------------------------------
       NWT REQUIRED            9 OUTER ITERATIONS 
       AND A TOTAL OF         17 INNER ITERATIONS.
    ------------------------------------------------

 NO OUTPUT CONTROL FOR STRESS PERIOD   23   TIME STEP   19
 
 SOLVING FOR HEAD 
                                                   Max.-Head-Change                         Max.-Flux-Residual
  Residual-Control   Outer-Iter.   Inner-Iter.     Column Row Layer    Maximum-Head-Change  Column Row Layer    Maximum-Flux-Residual          L2-NORM 
          0                 1           2             4    7     1       0.1185839385E+00       4    7    1         0.6295002527E+01      0.1256384599E+02
          0                 2           2             4    7     1       0.4661408011E-01       4    7    1         0.2482524856E+01      0.3912714534E+01
          0                 3           2             4    7     1       0.1831228724E-01       4    7    1         0.9750962350E+00      0.1490097446E+01
          0                 4           2             4    7     1       0.7190096304E-02       4    7    1         0.3830600216E+00      0.5815188382E+00
          0                 5           2             4    7     1       0.2821769063E-02       4    7    1         0.1503863953E+00      0.2270739489E+00
          0                 6           2             4    7     1       0.1106949149E-02       4    7    1         0.5901404632E-01      0.8870960600E-01
          0                 7           2             4    7     1       0.4340854263E-03       4    7    1         0.2314866397E-01      0.3466731187E-01
          0                 8           2             4    7     1       0.1701701590E-03       4    7    1         0.9076995834E-02      0.1355185160E-01
          0                 9           1             4    7     1       0.6669132836E-04       4    7    1         0.3558138160E-02      0.5298937475E-02

    ------------------------------------------------
       NWT REQUIRED            9 OUTER ITERATIONS 
       AND A TOTAL OF         17 INNER ITERATIONS.
    ------------------------------------------------

 NO OUTPUT CONTROL FOR STRESS PERIOD   23   TIME STEP   20
 
 SOLVING FOR HEAD 
                                                   Max.-Head-Change                         Max.-Flux-Residual
  Residual-Control   Outer-Iter.   Inner-Iter.     Column Row Layer    Maximum-Head-Change  Column Row Layer    Maximum-Flux-Residual          L2-NORM 
          0                 1           2             4    7     1       0.1051854255E+00       4    7    1         0.5596434698E+01      0.1168612957E+02
          0                 2           2             4    7     1       0.3907598489E-01       4    7    1         0.2083153106E+01      0.3382061335E+01
          0                 3           2             4    7     1       0.1453771940E-01       4    7    1         0.7735182397E+00      0.1244277693E+01
          0                 4           2             4    7     1       0.5416252437E-02       4    7    1         0.2879054225E+00      0.4730405920E+00
          0                 5           2             4    7     1       0.2020677241E-02       4    7    1         0.1072941493E+00      0.1801185960E+00
          0                 6           2             4    6     1       0.7768037583E-03       4    6    1         0.4145133029E-01      0.6866418049E-01
          0                 7           2             4    6     1       0.3040449307E-03       4    6    1         0.1624022893E-01      0.2620140263E-01
          0                 8           2             4    6     1       0.1188694009E-03       4    6    1         0.6354911144E-02      0.1000693791E-01
          0                 9           1             4    6     1       0.4642548656E-04       4    6    1         0.2483952960E-02      0.3824909466E-02

    ------------------------------------------------
       NWT REQUIRED            9 OUTER ITERATIONS 
       AND A TOTAL OF         17 INNER ITERATIONS.
    ------------------------------------------------

 NO OUTPUT CONTROL FOR STRESS PERIOD   23   TIME STEP   21
 
 SOLVING FOR HEAD 
                                                   Max.-Head-Change                         Max.-Flux-Residual
  Residual-Control   Outer-Iter.   Inner-Iter.     Column Row Layer    Maximum-Head-Change  Column Row Layer    Maximum-Flux-Residual          L2-NORM 
          0                 1           2             4    6     1       0.7977965200E-01       4    6    1         0.4223128197E+01      0.1045945902E+02
          0                 2           2             4    6     1       0.3103710072E-01       4    6    1         0.1671369628E+01      0.2759224048E+01
          0                 3           2             4    6     1       0.1206988878E-01       4    6    1         0.6475395174E+00      0.1005599602E+01
          0                 4           2             4    6     1       0.4692062189E-02       4    6    1         0.2519678681E+00      0.3839704805E+00
          0                 5           2             4    6     1       0.1823338332E-02       4    6    1         0.9793604114E-01      0.1467916863E+00
          0                 6           2             4    6     1       0.7083053627E-03       4    6    1         0.3805551210E-01      0.5615402074E-01
          0                 7           2             4    6     1       0.2750616771E-03       4    6    1         0.1478223479E-01      0.2149184803E-01
          0                 8           1             4    6     1       0.1067830761E-03       4    6    1         0.5740114571E-02      0.8229461668E-02
          0                 9           1             4    6     1       0.4144219960E-04       4    6    1         0.2228252703E-02      0.3152542426E-02

    ------------------------------------------------
       NWT REQUIRED            9 OUTER ITERATIONS 
       AND A TOTAL OF         16 INNER ITERATIONS.
    ------------------------------------------------

 NO OUTPUT CONTROL FOR STRESS PERIOD   23   TIME STEP   22
 
 SOLVING FOR HEAD 
                                                   Max.-Head-Change                         Max.-Flux-Residual
  Residual-Control   Outer-Iter.   Inner-Iter.     Column Row Layer    Maximum-Head-Change  Column Row Layer    Maximum-Flux-Residual          L2-NORM 
          0                 1           2             4    6     1       0.7636559131E-01       4    6    1         0.4035952143E+01      0.1031022348E+02
          0                 2           2             4    6     1       0.2862268233E-01       4    6    1         0.1539539610E+01      0.2669085007E+01
          0                 3           2             4    6     1       0.1056322838E-01       4    6    1         0.5653581140E+00      0.9501186143E+00
          0                 4           2             4    6     1       0.3900823108E-02       4    6    1         0.2088360386E+00      0.3550636093E+00
          0                 5           2             4    6     1       0.1441379673E-02       4    6    1         0.7712337816E-01      0.1328215779E+00
          0                 6           2             4    6     1       0.5329091337E-03       4    6    1         0.2850151062E-01      0.4970293226E-01
          0                 7           2             4    6     1       0.1971382714E-03       4    6    1         0.1053890730E-01      0.1860291159E-01
          0                 8           1             4    7     1       0.7397033556E-04       4    7    1         0.3905076206E-02      0.6964024924E-02

    ------------------------------------------------
       NWT REQUIRED            8 OUTER ITERATIONS 
       AND A TOTAL OF         15 INNER ITERATIONS.
    ------------------------------------------------

 NO OUTPUT CONTROL FOR STRESS PERIOD   23   TIME STEP   23
 
 SOLVING FOR HEAD 
                                                   Max.-Head-Change                         Max.-Flux-Residual
  Residual-Control   Outer-Iter.   Inner-Iter.     Column Row Layer    Maximum-Head-Change  Column Row Layer    Maximum-Flux-Residual          L2-NORM 
          0                 1           2             4    7     1       0.6722072959E-01       4    7    1         0.3557419612E+01      0.9483747416E+01
          0                 2           2             4    7     1       0.2506853444E-01       4    7    1         0.1333194860E+01      0.2199063669E+01
          0                 3           2             4    7     1       0.9350770051E-02       4    7    1         0.4965764084E+00      0.7652864194E+00
          0                 4           2             4    7     1       0.3488598771E-02       4    7    1         0.1852764481E+00      0.2855428972E+00
          0                 5           2             4    7     1       0.1301765014E-02       4    7    1         0.6912437456E-01      0.1067102123E+00
          0                 6           2             4    7     1       0.4858315331E-03       4    7    1         0.2579468180E-01      0.3988932989E-01
          0                 7           2             4    7     1       0.1813445894E-03       4    7    1         0.9627156250E-02      0.1491244306E-01
          0                 8           1             4    7     1       0.6769929462E-04       4    7    1         0.3593607167E-02      0.5575460755E-02

    ------------------------------------------------
       NWT REQUIRED            8 OUTER ITERATIONS 
       AND A TOTAL OF         15 INNER ITERATIONS.
    ------------------------------------------------

 NO OUTPUT CONTROL FOR STRESS PERIOD   23   TIME STEP   24
 
 SOLVING FOR HEAD 
                                                   Max.-Head-Change                         Max.-Flux-Residual
  Residual-Control   Outer-Iter.   Inner-Iter.     Column Row Layer    Maximum-Head-Change  Column Row Layer    Maximum-Flux-Residual          L2-NORM 
          0                 1           2             4    7     1       0.6493853249E-01       4    7    1         0.3433854824E+01      0.9284656094E+01
          0                 2           2             4    7     1       0.2423353196E-01       4    7    1         0.1288211217E+01      0.2117780543E+01
          0                 3           2             4    7     1       0.9043778319E-02       4    7    1         0.4800954557E+00      0.7346197520E+00
          0                 4           2             4    7     1       0.3375250065E-02       4    7    1         0.1792112864E+00      0.2740679416E+00
          0                 5           2             4    7     1       0.1259758943E-02       4    7    1         0.6688298273E-01      0.1024307680E+00
          0                 6           2             4    7     1       0.4702151018E-03       4    7    1         0.2496340923E-01      0.3829330183E-01
          0                 7           2             4    7     1       0.1755233942E-03       4    7    1         0.9317917186E-02      0.1431726574E-01
          0                 8           1             4    7     1       0.6552454408E-04       4    7    1         0.3478272250E-02      0.5353513561E-02

    ------------------------------------------------
       NWT REQUIRED            8 OUTER ITERATIONS 
       AND A TOTAL OF         15 INNER ITERATIONS.
    ------------------------------------------------

 NO OUTPUT CONTROL FOR STRESS PERIOD   23   TIME STEP   25
 
 SOLVING FOR HEAD 
                                                   Max.-Head-Change                         Max.-Flux-Residual
  Residual-Control   Outer-Iter.   Inner-Iter.     Column Row Layer    Maximum-Head-Change  Column Row Layer    Maximum-Flux-Residual          L2-NORM 
          0                 1           2             4    7     1       0.6280177241E-01       4    7    1         0.3318427322E+01      0.9143349754E+01
          0                 2           2             4    7     1       0.2345296043E-01       4    7    1         0.1246067878E+01      0.2083240420E+01
          0                 3           2             4    7     1       0.8758693273E-02       4    7    1         0.4646980274E+00      0.7225920411E+00
          0                 4           2             4    7     1       0.3271142595E-02       4    7    1         0.1735881882E+00      0.2696978031E+00
          0                 5           2             4    7     1       0.1221742494E-02       4    7    1         0.6482957273E-01      0.1008314649E+00
          0                 6           2             4    7     1       0.4563323249E-03       4    7    1         0.2421357870E-01      0.3770592076E-01
          0                 7           2             4    7     1       0.1704531854E-03       4    7    1         0.9044092410E-02      0.1410088412E-01
          0                 8           1             4    7     1       0.6367252008E-04       4    7    1         0.3378264603E-02      0.5273601856E-02

    ------------------------------------------------
       NWT REQUIRED            8 OUTER ITERATIONS 
       AND A TOTAL OF         15 INNER ITERATIONS.
    ------------------------------------------------

 NO OUTPUT CONTROL FOR STRESS PERIOD   23   TIME STEP   26
 
 SOLVING FOR HEAD 
                                                   Max.-Head-Change                         Max.-Flux-Residual
  Residual-Control   Outer-Iter.   Inner-Iter.     Column Row Layer    Maximum-Head-Change  Column Row Layer    Maximum-Flux-Residual          L2-NORM 
          0                 1           2             4    7     1       0.6080564362E-01       4    7    1         0.3210594430E+01      0.9015090759E+01
          0                 2           2             4    7     1       0.2271872318E-01       4    7    1         0.1206698418E+01      0.2044494557E+01
          0                 3           2             4    7     1       0.8483348860E-02       4    7    1         0.4501873162E+00      0.7007702590E+00
          0                 4           2             4    7     1       0.3165815124E-02       4    7    1         0.1681211499E+00      0.2589701398E+00
          0                 5           2             4    7     1       0.1180788928E-02       4    7    1         0.6272990206E-01      0.9594762995E-01
          0                 6           2             4    7     1       0.4402072948E-03       4    7    1         0.2339457826E-01      0.3558104019E-01
          0                 7           1             4    7     1       0.1640463772E-03       4    7    1         0.8720847495E-02      0.1320334126E-01
          0                 8           1             4    7     1       0.6111159509E-04       4    7    1         0.3249616620E-02      0.4902254151E-02

    ------------------------------------------------
       NWT REQUIRED            8 OUTER ITERATIONS 
       AND A TOTAL OF         14 INNER ITERATIONS.
    ------------------------------------------------

 NO OUTPUT CONTROL FOR STRESS PERIOD   23   TIME STEP   27
 
 SOLVING FOR HEAD 
                                                   Max.-Head-Change                         Max.-Flux-Residual
  Residual-Control   Outer-Iter.   Inner-Iter.     Column Row Layer    Maximum-Head-Change  Column Row Layer    Maximum-Flux-Residual          L2-NORM 
          0                 1           2             4    7     1       0.5829893586E-01       4    7    1         0.3108768334E+01      0.8502694162E+01
          0                 2           2             4    7     1       0.2151277152E-01       4    7    1         0.1153894897E+01      0.1742749411E+01
          0                 3           2             4    7     1       0.7939345522E-02       4    7    1         0.4251674158E+00      0.5811328640E+00
          0                 4           2             4    7     1       0.2930395736E-02       4    7    1         0.1569548524E+00      0.2142827327E+00
          0                 5           2             4    7     1       0.1081735225E-02       4    7    1         0.5793156216E-01      0.7925073508E-01
          0                 6           2             4    7     1       0.3993638175E-03       4    7    1         0.2138566527E-01      0.2932402965E-01
          0                 7           1             4    7     1       0.1474583180E-03       4    7    1         0.7895537295E-02      0.1085302627E-01
          0                 8           1             4    7     1       0.5445306261E-04       4    7    1         0.2915368970E-02      0.4017691727E-02

    ------------------------------------------------
       NWT REQUIRED            8 OUTER ITERATIONS 
       AND A TOTAL OF         14 INNER ITERATIONS.
    ------------------------------------------------

 NO OUTPUT CONTROL FOR STRESS PERIOD   23   TIME STEP   28
 
 SOLVING FOR HEAD 
                                                   Max.-Head-Change                         Max.-Flux-Residual
  Residual-Control   Outer-Iter.   Inner-Iter.     Column Row Layer    Maximum-Head-Change  Column Row Layer    Maximum-Flux-Residual          L2-NORM 
          0                 1           2             3    7     1       0.5705771828E-01       6    7    1         0.2979133280E+01      0.8155270773E+01
          0                 2           2             4    7     1       0.1697329912E-01       4    7    1         0.9102817792E+00      0.1525362638E+01
          0                 3           2             4    7     1       0.5896321054E-02       4    7    1         0.3151396641E+00      0.4800843874E+00
          0                 4           2             4    7     1       0.2052241258E-02       4    7    1         0.1095624077E+00      0.1723573444E+00
          0                 5           2             4    7     1       0.7156516792E-03       4    7    1         0.3814839128E-01      0.6226173528E-01
          0                 6           2             4    6     1       0.2602986896E-03       4    6    1         0.1386392632E-01      0.2254001955E-01
          0                 7           1             4    6     1       0.9666931161E-04       4    6    1         0.5153473380E-02      0.8173572358E-02

    ------------------------------------------------
       NWT REQUIRED            7 OUTER ITERATIONS 
       AND A TOTAL OF         13 INNER ITERATIONS.
    ------------------------------------------------

 NO OUTPUT CONTROL FOR STRESS PERIOD   23   TIME STEP   29
 
 SOLVING FOR HEAD 
                                                   Max.-Head-Change                         Max.-Flux-Residual
  Residual-Control   Outer-Iter.   Inner-Iter.     Column Row Layer    Maximum-Head-Change  Column Row Layer    Maximum-Flux-Residual          L2-NORM 
          0                 1           2             3    7     1       0.5674280793E-01       6    7    1         0.2896535685E+01      0.7607610727E+01
          0                 2           2             4    6     1       0.1292495365E-01       4    6    1         0.7013833597E+00      0.1181739854E+01
          0                 3           2             4    6     1       0.4736308385E-02       4    6    1         0.2547592601E+00      0.3387263873E+00
          0                 4           2             4    6     1       0.1735088616E-02       4    6    1         0.9349944003E-01      0.1215634655E+00
          0                 5           2             4    6     1       0.6354511679E-03       4    6    1         0.3424410426E-01      0.4402705024E-01
          0                 6           2             4    6     1       0.2326640550E-03       4    6    1         0.1254092248E-01      0.1595898942E-01
          0                 7           1             4    6     1       0.8516678252E-04       4    6    1         0.4591469192E-02      0.5787317728E-02

    ------------------------------------------------
       NWT REQUIRED            7 OUTER ITERATIONS 
       AND A TOTAL OF         13 INNER ITERATIONS.
    ------------------------------------------------

 NO OUTPUT CONTROL FOR STRESS PERIOD   23   TIME STEP   30



 STREAM LISTING     PERIOD     23   STEP       30

 LAYER ROW COL. STREAM  RCH.  FLOW INTO     FLOW TO   FLOW OUT OF   OVRLND.     DIRECT     STREAM       STREAM     STREAM     STREAM   STREAMBED  STREAMBED
                SEG.NO.  NO.  STRM. RCH.    AQUIFER    STRM. RCH.    RUNOFF     PRECIP       ET          HEAD       DEPTH      WIDTH   CONDCTNC.   GRADIENT

   1    1    1     1     1    1.6500E+01  1.9759E-01   1.6303E+01  0.000E+00  0.000E+00  0.000E+00  1.09409E+03  1.039E+00  1.087E+01  4.893E-02  1.346E+00
   1    2    2     1     2    1.6303E+01  3.0466E-01   1.5998E+01  0.000E+00  0.000E+00  0.000E+00  1.08909E+03  1.034E+00  1.079E+01  7.552E-02  1.345E+00
   1    3    3     1     3    1.5998E+01  2.5853E-01   1.5739E+01  0.000E+00  0.000E+00  0.000E+00  1.08345E+03  1.029E+00  1.070E+01  6.417E-02  1.343E+00
   1    3    4     1     4    1.5739E+01  2.3700E-01   1.5502E+01  0.000E+00  0.000E+00  0.000E+00  1.07843E+03  1.024E+00  1.061E+01  5.890E-02  1.341E+00
   1    4    5     2     1    1.3502E+01  2.9865E-01   1.3204E+01  0.000E+00  0.000E+00  0.000E+00  1.07276E+03  8.289E-01  1.200E+01  7.800E-02  1.276E+00
   1    5    6     2     2    1.3204E+01  2.2914E-01   1.2975E+01  0.000E+00  0.000E+00  0.000E+00  1.06733E+03  8.190E-01  1.200E+01  6.000E-02  1.273E+00
   1    6    6     2     3    1.2975E+01  2.2862E-01   1.2746E+01  0.000E+00  0.000E+00  0.000E+00  1.06260E+03  8.104E-01  1.200E+01  6.000E-02  1.270E+00
   1    7    6     2     4    1.2746E+01  2.2810E-01   1.2518E+01  0.000E+00  0.000E+00  0.000E+00  1.05788E+03  8.017E-01  1.200E+01  6.000E-02  1.267E+00
   1    8    6     2     5    1.2518E+01  2.2758E-01   1.2290E+01  0.000E+00  0.000E+00  0.000E+00  1.05315E+03  7.930E-01  1.200E+01  6.000E-02  1.264E+00
   1    3    5     3     1    2.0000E+00  2.8252E-01   1.7175E+00  0.000E+00  0.000E+00  0.000E+00  1.07555E+03  1.909E+00  9.636E+00  7.227E-02  1.955E+00
   1    3    6     3     2    1.7175E+00  2.4905E-01   1.4684E+00  0.000E+00  0.000E+00  0.000E+00  1.07264E+03  1.727E+00  8.909E+00  6.682E-02  1.864E+00
   1    3    7     3     3    1.4684E+00  1.9718E-01   1.2712E+00  0.000E+00  0.000E+00  0.000E+00  1.06987E+03  1.555E+00  8.218E+00  5.547E-02  1.777E+00
   1    4    8     3     4    1.2712E+00  2.2567E-01   1.0456E+00  0.000E+00  0.000E+00  0.000E+00  1.06682E+03  1.364E+00  7.455E+00  6.709E-02  1.682E+00
   1    5    8     3     5    1.0456E+00  1.5790E-01   8.8768E-01  0.000E+00  0.000E+00  0.000E+00  1.06362E+03  1.164E+00  6.655E+00  4.991E-02  1.582E+00
   1    6    8     3     6    8.8768E-01  5.5980E-02   8.3170E-01  0.000E+00  0.000E+00  0.000E+00  1.06158E+03  1.036E+00  6.145E+00  1.844E-02  1.518E+00
   1    5   10     4     1    1.0000E+01  9.0919E-02   9.9091E+00  0.000E+00  0.000E+00  0.000E+00  1.07836E+03  6.368E-01  1.000E+01  2.500E-02  1.212E+00
   1    5    9     4     2    9.9091E+00  1.8158E-01   9.7275E+00  0.000E+00  0.000E+00  0.000E+00  1.07154E+03  6.315E-01  1.000E+01  5.000E-02  1.211E+00
   1    6    8     4     3    9.7275E+00  1.2689E-01   9.6006E+00  0.000E+00  0.000E+00  0.000E+00  1.06381E+03  6.256E-01  1.000E+01  3.500E-02  1.209E+00
   1    6    8     5     1    1.0432E+01  2.2686E-01   1.0205E+01  0.000E+00  0.000E+00  0.000E+00  1.05868E+03  6.790E-01  1.542E+01  6.166E-02  1.226E+00
   1    7    7     5     2    1.0205E+01  2.7894E-01   9.9265E+00  0.000E+00  0.000E+00  0.000E+00  1.05417E+03  6.732E-01  1.519E+01  7.594E-02  1.224E+00
   1    8    7     5     3    9.9265E+00  1.9221E-01   9.7343E+00  0.000E+00  0.000E+00  0.000E+00  1.04992E+03  6.676E-01  1.497E+01  5.241E-02  1.223E+00
   1    8    6     5     4    9.7343E+00  1.3577E-01   9.5985E+00  0.000E+00  0.000E+00  0.000E+00  1.04691E+03  6.637E-01  1.482E+01  3.706E-02  1.221E+00
   1    9    6     6     1    2.1889E+01  2.4742E-01   2.1641E+01  0.000E+00  0.000E+00  0.000E+00  1.04385E+03  1.124E+00  1.200E+01  6.000E-02  1.375E+00
   1   10    7     6     2    2.1641E+01  2.4696E-01   2.1395E+01  0.000E+00  0.000E+00  0.000E+00  1.03930E+03  1.116E+00  1.200E+01  6.000E-02  1.372E+00
   1   11    7     6     3    2.1395E+01  2.4650E-01   2.1148E+01  0.000E+00  0.000E+00  0.000E+00  1.03474E+03  1.108E+00  1.200E+01  6.000E-02  1.369E+00
   1   12    7     6     4    2.1148E+01  2.4603E-01   2.0902E+01  0.000E+00  0.000E+00  0.000E+00  1.03019E+03  1.101E+00  1.200E+01  6.000E-02  1.367E+00
   1   13    7     6     5    2.0902E+01  4.4166E-03   2.0898E+01  0.000E+00  0.000E+00  0.000E+00  1.02701E+03  1.097E+00  1.200E+01  2.400E-02  6.134E-02
   1   14    9     7     1    1.5000E+02  1.3513E+00   1.4865E+02  0.000E+00  0.000E+00  0.000E+00  1.03987E+03  2.288E+00  5.529E+01  5.593E-01  8.054E-01
   1   13    8     7     2    1.4865E+02  1.9044E+00   1.4674E+02  0.000E+00  0.000E+00  0.000E+00  1.03478E+03  2.279E+00  5.526E+01  6.148E-01  1.033E+00
   1   13    7     7     3    1.4674E+02  1.6011E+00   1.4514E+02  0.000E+00  0.000E+00  0.000E+00  1.02969E+03  2.270E+00  5.521E+01  5.584E-01  9.558E-01
   1   13    6     8     1    1.6604E+02  1.0346E+00   1.6501E+02  0.000E+00  0.000E+00  0.000E+00  1.02480E+03  2.923E+00  4.238E+01  4.319E-01  7.985E-01
   1   13    5     8     2    1.6501E+02  2.9062E-01   1.6472E+02  0.000E+00  0.000E+00  0.000E+00  1.01854E+03  2.918E+00  4.232E+01  4.312E-01  2.246E-01
   1   13    4     8     3    1.6472E+02 -2.0280E+00   1.6674E+02  0.000E+00  0.000E+00  0.000E+00  1.01230E+03  2.924E+00  4.240E+01  4.321E+00 -1.565E-01
   1   13    3     8     4    1.6674E+02 -3.4602E+00   1.7020E+02  0.000E+00  0.000E+00  0.000E+00  1.00607E+03  2.942E+00  4.266E+01  4.347E+00 -2.653E-01
   1   13    2     8     5    1.7020E+02 -2.5295E+00   1.7273E+02  0.000E+00  0.000E+00  0.000E+00  9.99837E+02  2.962E+00  4.295E+01  4.376E+00 -1.927E-01
   1   13    1     8     6    1.7273E+02 -1.9614E+00   1.7469E+02  0.000E+00  0.000E+00  0.000E+00  9.94851E+02  2.976E+00  4.316E+01  2.639E+00 -2.478E-01
   1    8    6     9     1    0.0000E+00  0.0000E+00   0.0000E+00  0.000E+00  0.000E+00  0.000E+00  1.07875E+03  0.000E+00  4.000E+00  0.000E+00  1.000E+00
   1    8    5     9     2    0.0000E+00  0.0000E+00   0.0000E+00  0.000E+00  0.000E+00  0.000E+00  1.07825E+03  0.000E+00  4.000E+00  0.000E+00  1.000E+00





UNSATURATED ZONE PACKAGE VOLUMETRIC BUDGET FOR  TIME STEP    30 STRESS PERIOD   23
  ------------------------------------------------------------------------------



     CUMULATIVE VOLUMES      L**3       RATES FOR THIS TIME STEP      L**3/T
     ------------------                 ------------------------

           IN:                                      IN:
           ---                                      ---
        INFILTRATION =  6015643775.2974          INFILTRATION =           0.8475

          OUT:                                     OUT:
          ----                                     ----
              UZF ET =   858989563.6570                UZF ET =           0.8475
        UZF RECHARGE =  4666731475.3262          UZF RECHARGE =          28.8545

            IN - OUT =   489922736.3142              IN - OUT =         -28.8545

          STORAGE:                                 STORAGE:
          --------                                 --------
      STORAGE CHANGE =   490761582.5547        STORAGE CHANGE =         -28.8545

 PERCENT DISCREPANCY IS DIFFERENCE BETWEEN IN-OUT MINUS CHANGE IN STORAGE
 DIVIDED BY THE AVERAGE OF IN AND OUT TIMES 100

 PERCENT DISCREPANCY =          -0.00     PERCENT DISCREPANCY =           0.00






1
  VOLUMETRIC BUDGET FOR AGRICULTURAL FIELDS AT  END OF TIME STEP   30, STRESS PERIOD  23
  ------------------------------------------------------------------------------

     CUMULATIVE VOLUMES      L**3       RATES FOR THIS TIME STEP      L**3/T
     ------------------                 ------------------------

           IN:                                      IN:
           ---                                      ---
               AG WELLS  =  5381544960.0000                 AG WELLS  =           0.0000
      DIVERSION SEGMENTS =   585000640.0000        DIVERSION SEGMENTS =           0.0000
       IRRIGATION PONDS  =           0.0000         IRRIGATION PONDS  =           0.0000
           GW IRRIGATION =           0.0000             GW IRRIGATION =           0.0000
           SW IRRIGATION =           0.0000             SW IRRIGATION =           0.0000
        SYSTEM LOSSES GW =           0.0000          SYSTEM LOSSES GW =           0.0000
        SYSTEM LOSSES SW =           0.0000          SYSTEM LOSSES SW =           0.0000

                TOTAL IN =  5966545408.0000                  TOTAL IN =           0.0000

          OUT:                                     OUT:
          ----                                     ----
               AG WELLS  =           0.0000                 AG WELLS  =           0.0000
      DIVERSION SEGMENTS =           0.0000        DIVERSION SEGMENTS =           0.0000
       IRRIGATION PONDS  =           0.0000         IRRIGATION PONDS  =           0.0000
           GW IRRIGATION =  5381544960.0000             GW IRRIGATION =           0.0000
           SW IRRIGATION =   585012352.0000             SW IRRIGATION =           0.0000
        SYSTEM LOSSES GW =           0.0000          SYSTEM LOSSES GW =           0.0000
        SYSTEM LOSSES SW =           0.0000          SYSTEM LOSSES SW =           0.0000

               TOTAL OUT =  5966557184.0000                 TOTAL OUT =           0.0000

                IN - OUT =      -11776.0000                  IN - OUT =           0.0000

     PERCENT DISCREPANCY =          -0.00         PERCENT DISCREPANCY =           0.00



1
  VOLUMETRIC BUDGET FOR ENTIRE MODEL AT END OF TIME STEP   30, STRESS PERIOD  23
  ------------------------------------------------------------------------------

     CUMULATIVE VOLUMES      L**3       RATES FOR THIS TIME STEP      L**3/T
     ------------------                 ------------------------

           IN:                                      IN:
           ---                                      ---
             STORAGE     =  4744783872.0000               STORAGE     =           5.5968
       CONSTANT HEAD     =           0.0000         CONSTANT HEAD     =           0.0000
     HEAD DEP BOUNDS     =    16572585.0000       HEAD DEP BOUNDS     =           0.2868
      STREAM LEAKAGE     =   704855488.0000        STREAM LEAKAGE     =          11.7847
        UZF RECHARGE     =  4666732032.0000          UZF RECHARGE     =          28.8545
               GW ET     =           0.0000                 GW ET     =           0.0000
     SURFACE LEAKAGE     =           0.0000       SURFACE LEAKAGE     =           0.0000
           AG WELLS      =           0.0000             AG WELLS      =           0.0000

                TOTAL IN = 10132943872.0000                  TOTAL IN =          46.5228

          OUT:                                     OUT:
          ----                                     ----
             STORAGE     =  4126945536.0000               STORAGE     =          36.2507
       CONSTANT HEAD     =           0.0000         CONSTANT HEAD     =           0.0000
     HEAD DEP BOUNDS     =    16843442.0000       HEAD DEP BOUNDS     =           0.2886
      STREAM LEAKAGE     =   606206592.0000        STREAM LEAKAGE     =           9.9791
        UZF RECHARGE     =           0.0000          UZF RECHARGE     =           0.0000
               GW ET     =     1320838.1250                 GW ET     =           0.0000
     SURFACE LEAKAGE     =           0.0000       SURFACE LEAKAGE     =           0.0000
           AG WELLS      =  5381544960.0000             AG WELLS      =           0.0000

               TOTAL OUT = 10132860928.0000                 TOTAL OUT =          46.5184

                IN - OUT =       82944.0000                  IN - OUT =       4.3793E-03

     PERCENT DISCREPANCY =           0.00         PERCENT DISCREPANCY =           0.01






         TIME SUMMARY AT END OF TIME STEP   30 IN STRESS PERIOD   23
                    SECONDS     MINUTES      HOURS       DAYS        YEARS
                    -----------------------------------------------------------
   TIME STEP LENGTH  87667.      1461.1      24.352      1.0147     2.77799E-03
 STRESS PERIOD TIME 2.63000E+06  43833.      730.56      30.440     8.33397E-02
         TOTAL TIME 5.79467E+07 9.65778E+05  16096.      670.68      1.8362    
1
1
                            STRESS PERIOD NO.   24, LENGTH =   2630000.    
                            -----------------------------------------------

                              NUMBER OF TIME STEPS =    30

                               MULTIPLIER FOR DELT =     1.000

                            INITIAL TIME STEP SIZE =   87666.66    

 REUSING NON-PARAMETER GHB CELLS FROM LAST STRESS PERIOD

      2 GHB CELLS

 REUSING STREAM SEGMENT DATA FROM LAST STRESS PERIOD



            AREAL INFILTRATION RATE
 READING ON UNIT   19 WITH FORMAT: (FREE)              

            1           2           3           4           5           6           7           8           9          10
 ........................................................................................................................
   1   1.0000E-10  2.0000E-10   0.000       0.000       0.000       0.000       0.000       0.000       0.000       0.000    
   2   2.0000E-10  1.0000E-10  2.0000E-10   0.000       0.000      8.0000E-10  8.0000E-10  5.0000E-10   0.000       0.000    
   3    0.000      5.0000E-10  1.0000E-10  1.0000E-10  8.0000E-10  8.0000E-10  5.0000E-10  5.0000E-10   0.000       0.000    
   4   8.0000E-10  5.0000E-10  1.0000E-10  1.0000E-10  1.0000E-10  1.0000E-10  1.0000E-10  1.0000E-10  2.0000E-10   0.000    
   5   8.0000E-10  5.0000E-10  1.0000E-10  1.0000E-10  1.0000E-10  1.0000E-10  1.0000E-10  1.0000E-10  1.0000E-10  1.0000E-10
   6   8.0000E-10  5.0000E-10  5.0000E-10  2.0000E-10  2.0000E-10  1.0000E-10  1.0000E-10  1.0000E-10  1.0000E-10  5.0000E-10
   7   8.0000E-10  5.0000E-10  5.0000E-10  2.0000E-10  2.0000E-10  1.0000E-10  1.0000E-10  2.0000E-10  2.0000E-10   0.000    
   8    0.000      5.0000E-10  5.0000E-10  2.0000E-10  2.0000E-10  1.0000E-10  1.0000E-10  2.0000E-10  5.0000E-10   0.000    
   9    0.000      5.0000E-10  5.0000E-10  2.0000E-10  2.0000E-10  1.0000E-10  1.0000E-10  2.0000E-10  5.0000E-10   0.000    
  10    0.000      5.0000E-10  5.0000E-10  2.0000E-10  2.0000E-10  1.0000E-10  1.0000E-10  2.0000E-10  5.0000E-10  8.0000E-10
  11    0.000      1.0000E-10  1.0000E-10  1.0000E-10  1.0000E-10  1.0000E-10  1.0000E-10  2.0000E-10  5.0000E-10   0.000    
  12   1.0000E-10  1.0000E-10  1.0000E-10  1.0000E-10  1.0000E-10  1.0000E-10  1.0000E-10  1.0000E-10  2.0000E-10   0.000    
  13   1.0000E-10  1.0000E-10  2.0000E-10  2.0000E-10  2.0000E-10  2.0000E-10  2.0000E-10  1.0000E-10  1.0000E-10   0.000    
  14    0.000      2.0000E-10  5.0000E-10  5.0000E-10  5.0000E-10  5.0000E-10  5.0000E-10  2.0000E-10  1.0000E-10   0.000    
  15    0.000       0.000      8.0000E-10  8.0000E-10  8.0000E-10  8.0000E-10   0.000       0.000       0.000       0.000    

                  ET RATE =  5.000000E-10

 USING ET EXTINCTION DEPTH FROM PREVIOUS STRESS PERIOD. CURRENT PERIOD IS:      24

 USING EXTINCTION WATER CONTENT FROM PREVIOUS STRESS PERIOD. CURRENT PERIOD IS:      24

 USING AIR ENTRY PRESSURE FROM PREVIOUS STRESS PERIOD. CURRENT PERIOD IS:      24

 USING ROOT PRESSURE HEAD FROM PREVIOUS STRESS PERIOD. CURRENT PERIOD IS:      24

 USING ROOT ACTIVITY FROM PREVIOUS STRESS PERIOD. CURRENT PERIOD IS:      24

 PROCESSING AG STRESS PERIOD DATA

 READING AG STRESS PERIOD DATA

 READING IRRIGATION SEGMENT

 READING IRRIGATION WELL

 READING SUPPLEMENTAL WELL

 NO IRRPOND OR REUSING IRRPOND DATA FROM LAST STRESS PERIOD

 END PROCESSING AG STRESS PERIOD DATA OPTIONS
 
 SOLVING FOR HEAD 
                                                   Max.-Head-Change                         Max.-Flux-Residual
  Residual-Control   Outer-Iter.   Inner-Iter.     Column Row Layer    Maximum-Head-Change  Column Row Layer    Maximum-Flux-Residual          L2-NORM 
          0                 1           2             3    7     1       0.5626546796E-01       6    7    1         0.2817960669E+01      0.7472656407E+01
          0                 2           2             4    6     1       0.1238363888E-01       4    6    1         0.6746434896E+00      0.1150482227E+01
          0                 3           2             4    6     1       0.4518396999E-02       4    6    1         0.2438307809E+00      0.3267123312E+00
          0                 4           2             4    6     1       0.1648907676E-02       4    6    1         0.8911754747E-01      0.1165737526E+00
          0                 5           2             4    6     1       0.6018187657E-03       4    6    1         0.3251607720E-01      0.4202990487E-01
          0                 6           2             4    6     1       0.2196794609E-03       4    6    1         0.1186806016E-01      0.1517592645E-01
          0                 7           1             4    6     1       0.8019821084E-04       4    6    1         0.4332168677E-02      0.5485336328E-02

    ------------------------------------------------
       NWT REQUIRED            7 OUTER ITERATIONS 
       AND A TOTAL OF         13 INNER ITERATIONS.
    ------------------------------------------------

 NO OUTPUT CONTROL FOR STRESS PERIOD   24   TIME STEP    1
 
 SOLVING FOR HEAD 
                                                   Max.-Head-Change                         Max.-Flux-Residual
  Residual-Control   Outer-Iter.   Inner-Iter.     Column Row Layer    Maximum-Head-Change  Column Row Layer    Maximum-Flux-Residual          L2-NORM 
          0                 1           2             3    7     1       0.5579490512E-01       4    5    1         0.2761921165E+01      0.7335121041E+01
          0                 2           2             4    6     1       0.1174628920E-01       4    6    1         0.6392014272E+00      0.1127191379E+01
          0                 3           2             4    6     1       0.4035203198E-02       4    6    1         0.2172875184E+00      0.3097522471E+00
          0                 4           2             4    6     1       0.1387431869E-02       4    6    1         0.7479803085E-01      0.1069643323E+00
          0                 5           2             4    6     1       0.4774524580E-03       4    6    1         0.2571737309E-01      0.3733849381E-01
          0                 6           2             4    6     1       0.1644416302E-03       4    6    1         0.8851968159E-02      0.1305100722E-01
          0                 7           1             4    6     1       0.5668231134E-04       4    6    1         0.3049308856E-02      0.4565412515E-02

    ------------------------------------------------
       NWT REQUIRED            7 OUTER ITERATIONS 
       AND A TOTAL OF         13 INNER ITERATIONS.
    ------------------------------------------------

 NO OUTPUT CONTROL FOR STRESS PERIOD   24   TIME STEP    2
 
 SOLVING FOR HEAD 
                                                   Max.-Head-Change                         Max.-Flux-Residual
  Residual-Control   Outer-Iter.   Inner-Iter.     Column Row Layer    Maximum-Head-Change  Column Row Layer    Maximum-Flux-Residual          L2-NORM 
          0                 1           2             3    7     1       0.5532504731E-01       4    5    1         0.2717019509E+01      0.7019729252E+01
          0                 2           2             4    7     1       0.7618697013E-02       4    7    1         0.4089929299E+00      0.9223671120E+00
          0                 3           2             4    7     1       0.2647409450E-02       4    7    1         0.1414381317E+00      0.2194021887E+00
          0                 4           2             4    7     1       0.9206500519E-03       4    7    1         0.4919542450E-01      0.7518267044E-01
          0                 5           2             4    7     1       0.3203946806E-03       4    7    1         0.1710931939E-01      0.2631330037E-01
          0                 6           1             4    7     1       0.1115778547E-03       4    7    1         0.5955151300E-02      0.9219325488E-02
          0                 7           1             4    7     1       0.3888283355E-04       4    7    1         0.2074207051E-02      0.3231488701E-02

    ------------------------------------------------
       NWT REQUIRED            7 OUTER ITERATIONS 
       AND A TOTAL OF         12 INNER ITERATIONS.
    ------------------------------------------------

 NO OUTPUT CONTROL FOR STRESS PERIOD   24   TIME STEP    3
 
 SOLVING FOR HEAD 
                                                   Max.-Head-Change                         Max.-Flux-Residual
  Residual-Control   Outer-Iter.   Inner-Iter.     Column Row Layer    Maximum-Head-Change  Column Row Layer    Maximum-Flux-Residual          L2-NORM 
          0                 1           2             3    7     1       0.5484496063E-01       4    5    1         0.2633920713E+01      0.6891744621E+01
          0                 2           2             4    7     1       0.7375151322E-02       4    7    1         0.3950948613E+00      0.9158960435E+00
          0                 3           2             4    7     1       0.2569802868E-02       4    7    1         0.1370001965E+00      0.2210496710E+00
          0                 4           2             4    7     1       0.8960352665E-03       4    7    1         0.4778235966E-01      0.7596749261E-01
          0                 5           2             4    7     1       0.3126299177E-03       4    7    1         0.1666166191E-01      0.2662550576E-01
          0                 6           1             4    7     1       0.1091441822E-03       4    7    1         0.5814129477E-02      0.9340876859E-02
          0                 7           1             4    7     1       0.3812592475E-04       4    7    1         0.2030078787E-02      0.3278027235E-02

    ------------------------------------------------
       NWT REQUIRED            7 OUTER ITERATIONS 
       AND A TOTAL OF         12 INNER ITERATIONS.
    ------------------------------------------------

 NO OUTPUT CONTROL FOR STRESS PERIOD   24   TIME STEP    4
 
 SOLVING FOR HEAD 
                                                   Max.-Head-Change                         Max.-Flux-Residual
  Residual-Control   Outer-Iter.   Inner-Iter.     Column Row Layer    Maximum-Head-Change  Column Row Layer    Maximum-Flux-Residual          L2-NORM 
          0                 1           2             3    7     1       0.5436062391E-01       4    5    1         0.2555842386E+01      0.6774258824E+01
          0                 2           2             4    7     1       0.7166637036E-02       4    7    1         0.3831627715E+00      0.9116514430E+00
          0                 3           2             4    7     1       0.2503615020E-02       4    7    1         0.1332038647E+00      0.2233860016E+00
          0                 4           2             4    7     1       0.8751365257E-03       4    7    1         0.4657835347E-01      0.7696013554E-01
          0                 5           2             4    7     1       0.3060723120E-03       4    7    1         0.1628201278E-01      0.2700119279E-01
          0                 6           1             4    7     1       0.1071018664E-03       4    7    1         0.5695190495E-02      0.9481553506E-02
          0                 7           1             4    7     1       0.3749560565E-04       4    7    1         0.1993106212E-02      0.3330277927E-02

    ------------------------------------------------
       NWT REQUIRED            7 OUTER ITERATIONS 
       AND A TOTAL OF         12 INNER ITERATIONS.
    ------------------------------------------------

 NO OUTPUT CONTROL FOR STRESS PERIOD   24   TIME STEP    5
 
 SOLVING FOR HEAD 
                                                   Max.-Head-Change                         Max.-Flux-Residual
  Residual-Control   Outer-Iter.   Inner-Iter.     Column Row Layer    Maximum-Head-Change  Column Row Layer    Maximum-Flux-Residual          L2-NORM 
          0                 1           2             3    7     1       0.5387392488E-01       4    5    1         0.2482460545E+01      0.6666105302E+01
          0                 2           2             4    7     1       0.6988656395E-02       4    7    1         0.3729462251E+00      0.9091285285E+00
          0                 3           2             4    7     1       0.2447363799E-02       4    7    1         0.1299665623E+00      0.2261783740E+00
          0                 4           2             4    7     1       0.8574656908E-03       4    7    1         0.4555620043E-01      0.7808414735E-01
          0                 5           2             4    7     1       0.3005611837E-03       4    7    1         0.1596141281E-01      0.2741568304E-01
          0                 6           1             4    7     1       0.1053980492E-03       4    7    1         0.5595385690E-02      0.9633434793E-02
          0                 7           1             4    7     1       0.3697450029E-04       4    7    1         0.1962319488E-02      0.3385687164E-02

    ------------------------------------------------
       NWT REQUIRED            7 OUTER ITERATIONS 
       AND A TOTAL OF         12 INNER ITERATIONS.
    ------------------------------------------------

 NO OUTPUT CONTROL FOR STRESS PERIOD   24   TIME STEP    6
 
 SOLVING FOR HEAD 
                                                   Max.-Head-Change                         Max.-Flux-Residual
  Residual-Control   Outer-Iter.   Inner-Iter.     Column Row Layer    Maximum-Head-Change  Column Row Layer    Maximum-Flux-Residual          L2-NORM 
          0                 1           2             3    7     1       0.5338697767E-01       6    7    1         0.2422654587E+01      0.6566244677E+01
          0                 2           2             4    7     1       0.6837489963E-02       4    7    1         0.3642380502E+00      0.9079072851E+00
          0                 3           2             4    7     1       0.2399824356E-02       4    7    1         0.1272200126E+00      0.2292439334E+00
          0                 4           2             4    7     1       0.8426196552E-03       4    7    1         0.4469342074E-01      0.7928012957E-01
          0                 5           2             4    7     1       0.2959639594E-03       4    7    1         0.1569246484E-01      0.2784972166E-01
          0                 6           1             4    7     1       0.1039891632E-03       4    7    1         0.5512282673E-02      0.9790395270E-02
          0                 7           1             4    7     1       0.3654830257E-04       4    7    1         0.1936919394E-02      0.3442290674E-02

    ------------------------------------------------
       NWT REQUIRED            7 OUTER ITERATIONS 
       AND A TOTAL OF         12 INNER ITERATIONS.
    ------------------------------------------------

 NO OUTPUT CONTROL FOR STRESS PERIOD   24   TIME STEP    7
 
 SOLVING FOR HEAD 
                                                   Max.-Head-Change                         Max.-Flux-Residual
  Residual-Control   Outer-Iter.   Inner-Iter.     Column Row Layer    Maximum-Head-Change  Column Row Layer    Maximum-Flux-Residual          L2-NORM 
          0                 1           2             3    7     1       0.5290068511E-01       6    7    1         0.2367614062E+01      0.6473779415E+01
          0                 2           2             4    7     1       0.6709861425E-02       4    7    1         0.3568552538E+00      0.9076548131E+00
          0                 3           2             4    7     1       0.2359921561E-02       4    7    1         0.1249041222E+00      0.2324474923E+00
          0                 4           2             4    7     1       0.8302458936E-03       4    7    1         0.4397029881E-01      0.8050494561E-01
          0                 5           2             4    7     1       0.2921651493E-03       4    7    1         0.1546870545E-01      0.2828971221E-01
          0                 6           1             4    7     1       0.1028374106E-03       4    7    1         0.5443764468E-02      0.9948056852E-02
          0                 7           1             4    7     1       0.3620465575E-04       4    7    1         0.1916213230E-02      0.3498699016E-02

    ------------------------------------------------
       NWT REQUIRED            7 OUTER ITERATIONS 
       AND A TOTAL OF         12 INNER ITERATIONS.
    ------------------------------------------------

 NO OUTPUT CONTROL FOR STRESS PERIOD   24   TIME STEP    8
 
 SOLVING FOR HEAD 
                                                   Max.-Head-Change                         Max.-Flux-Residual
  Residual-Control   Outer-Iter.   Inner-Iter.     Column Row Layer    Maximum-Head-Change  Column Row Layer    Maximum-Flux-Residual          L2-NORM 
          0                 1           2             3    7     1       0.5241648692E-01       6    7    1         0.2315213421E+01      0.6387918650E+01
          0                 2           2             4    7     1       0.6602680179E-02       4    7    1         0.3506258742E+00      0.9080975401E+00
          0                 3           2             4    7     1       0.2326636179E-02       4    7    1         0.1229621388E+00      0.2356851966E+00
          0                 4           2             4    7     1       0.8200084927E-03       4    7    1         0.4336812225E-01      0.8172570544E-01
          0                 5           2             4    7     1       0.2890541259E-03       4    7    1         0.1528396853E-01      0.2872514433E-01
          0                 6           1             4    7     1       0.1019063852E-03       4    7    1         0.5387800673E-02      0.1010310512E-01
          0                 7           1             4    7     1       0.3593158927E-04       4    7    1         0.1899532991E-02      0.3553862432E-02

    ------------------------------------------------
       NWT REQUIRED            7 OUTER ITERATIONS 
       AND A TOTAL OF         12 INNER ITERATIONS.
    ------------------------------------------------

 NO OUTPUT CONTROL FOR STRESS PERIOD   24   TIME STEP    9
 
 SOLVING FOR HEAD 
                                                   Max.-Head-Change                         Max.-Flux-Residual
  Residual-Control   Outer-Iter.   Inner-Iter.     Column Row Layer    Maximum-Head-Change  Column Row Layer    Maximum-Flux-Residual          L2-NORM 
          0                 1           2             3    7     1       0.5193515187E-01       6    7    1         0.2265310048E+01      0.6307959729E+01
          0                 2           2             4    7     1       0.6513319834E-02       4    7    1         0.3454030521E+00      0.9090213167E+00
          0                 3           2             4    7     1       0.2299107718E-02       4    7    1         0.1213459067E+00      0.2388835002E+00
          0                 4           2             4    7     1       0.8116257857E-03       4    7    1         0.4287111734E-01      0.8291962432E-01
          0                 5           2             4    7     1       0.2865387826E-03       4    7    1         0.1513309190E-01      0.2914886760E-01
          0                 6           1             4    7     1       0.1011660040E-03       4    7    1         0.5342703725E-02      0.1025343593E-01
          0                 7           1             4    7     1       0.3571928976E-04       4    7    1         0.1886327590E-02      0.3607126549E-02

    ------------------------------------------------
       NWT REQUIRED            7 OUTER ITERATIONS 
       AND A TOTAL OF         12 INNER ITERATIONS.
    ------------------------------------------------

 NO OUTPUT CONTROL FOR STRESS PERIOD   24   TIME STEP   10
 
 SOLVING FOR HEAD 
                                                   Max.-Head-Change                         Max.-Flux-Residual
  Residual-Control   Outer-Iter.   Inner-Iter.     Column Row Layer    Maximum-Head-Change  Column Row Layer    Maximum-Flux-Residual          L2-NORM 
          0                 1           2             3    7     1       0.5145802662E-01       6    7    1         0.2217783838E+01      0.6233293108E+01
          0                 2           2             4    7     1       0.6439360417E-02       4    7    1         0.3410520008E+00      0.9102501055E+00
          0                 3           2             4    7     1       0.2276539258E-02       4    7    1         0.1200110024E+00      0.2419861020E+00
          0                 4           2             4    7     1       0.8048355235E-03       4    7    1         0.4246465820E-01      0.8406936940E-01
          0                 5           2             4    7     1       0.2845328881E-03       4    7    1         0.1501126337E-01      0.2955543478E-01
          0                 6           1             4    7     1       0.1005879361E-03       4    7    1         0.5306891548E-02      0.1039707674E-01
          0                 7           1             4    7     1       0.3555845886E-04       4    7    1         0.1876077376E-02      0.3657872232E-02

    ------------------------------------------------
       NWT REQUIRED            7 OUTER ITERATIONS 
       AND A TOTAL OF         12 INNER ITERATIONS.
    ------------------------------------------------

 NO OUTPUT CONTROL FOR STRESS PERIOD   24   TIME STEP   11
 
 SOLVING FOR HEAD 
                                                   Max.-Head-Change                         Max.-Flux-Residual
  Residual-Control   Outer-Iter.   Inner-Iter.     Column Row Layer    Maximum-Head-Change  Column Row Layer    Maximum-Flux-Residual          L2-NORM 
          0                 1           2             3    7     1       0.5098533319E-01       6    7    1         0.2172497874E+01      0.6163382414E+01
          0                 2           2             4    7     1       0.6378850235E-02       4    7    1         0.3374635464E+00      0.9116567530E+00
          0                 3           2             4    7     1       0.2258291743E-02       4    7    1         0.1189216447E+00      0.2449589422E+00
          0                 4           2             4    7     1       0.7994287120E-03       4    7    1         0.4213703212E-01      0.8516497241E-01
          0                 5           2             4    7     1       0.2829681846E-03       4    7    1         0.1491465352E-01      0.2994181799E-01
          0                 6           1             4    7     1       0.1001499222E-03       4    7    1         0.5279113896E-02      0.1053325142E-01
          0                 7           1             4    7     1       0.3544184933E-04       4    7    1         0.1868374793E-02      0.3705873062E-02

    ------------------------------------------------
       NWT REQUIRED            7 OUTER ITERATIONS 
       AND A TOTAL OF         12 INNER ITERATIONS.
    ------------------------------------------------

 NO OUTPUT CONTROL FOR STRESS PERIOD   24   TIME STEP   12
 
 SOLVING FOR HEAD 
                                                   Max.-Head-Change                         Max.-Flux-Residual
  Residual-Control   Outer-Iter.   Inner-Iter.     Column Row Layer    Maximum-Head-Change  Column Row Layer    Maximum-Flux-Residual          L2-NORM 
          0                 1           2             3    7     1       0.5051791376E-01       6    7    1         0.2129352163E+01      0.6097752525E+01
          0                 2           2             4    7     1       0.6329801192E-02       4    7    1         0.3345269563E+00      0.9134512463E+00
          0                 3           2             4    7     1       0.2243710359E-02       4    7    1         0.1180413379E+00      0.2477755405E+00
          0                 4           2             4    7     1       0.7951897985E-03       4    7    1         0.4187622072E-01      0.8619701043E-01
          0                 5           2             4    7     1       0.2817737613E-03       4    7    1         0.1483930667E-01      0.3030505204E-01
          0                 6           1             4    7     1       0.9982865054E-04       4    7    1         0.5258069644E-02      0.1066103687E-01

    ------------------------------------------------
       NWT REQUIRED            6 OUTER ITERATIONS 
       AND A TOTAL OF         11 INNER ITERATIONS.
    ------------------------------------------------

 NO OUTPUT CONTROL FOR STRESS PERIOD   24   TIME STEP   13
 
 SOLVING FOR HEAD 
                                                   Max.-Head-Change                         Max.-Flux-Residual
  Residual-Control   Outer-Iter.   Inner-Iter.     Column Row Layer    Maximum-Head-Change  Column Row Layer    Maximum-Flux-Residual          L2-NORM 
          0                 1           2             3    7     1       0.5005612900E-01       6    7    1         0.2086520537E+01      0.6035575245E+01
          0                 2           2             4    7     1       0.6290946512E-02       4    8    1         0.3331062187E+00      0.9145811494E+00
          0                 3           2             4    7     1       0.2232392058E-02       4    7    1         0.1173470015E+00      0.2504237975E+00
          0                 4           2             4    7     1       0.7919911531E-03       4    7    1         0.4167488812E-01      0.8716783228E-01
          0                 5           2             4    7     1       0.2809094291E-03       4    7    1         0.1478290261E-01      0.3064629485E-01
          0                 6           1             4    7     1       0.9961155040E-04       4    7    1         0.5243029206E-02      0.1078100181E-01

    ------------------------------------------------
       NWT REQUIRED            6 OUTER ITERATIONS 
       AND A TOTAL OF         11 INNER ITERATIONS.
    ------------------------------------------------

 NO OUTPUT CONTROL FOR STRESS PERIOD   24   TIME STEP   14
 
 SOLVING FOR HEAD 
                                                   Max.-Head-Change                         Max.-Flux-Residual
  Residual-Control   Outer-Iter.   Inner-Iter.     Column Row Layer    Maximum-Head-Change  Column Row Layer    Maximum-Flux-Residual          L2-NORM 
          0                 1           2             3    7     1       0.4960026233E-01       6    7    1         0.2045220004E+01      0.5976816968E+01
          0                 2           2             4    8     1       0.6263916201E-02       4    8    1         0.3346317184E+00      0.9159600788E+00
          0                 3           2             4    7     1       0.2223702394E-02       4    7    1         0.1168036845E+00      0.2528931983E+00
          0                 4           2             4    7     1       0.7896206362E-03       4    7    1         0.4152134895E-01      0.8806948941E-01
          0                 5           2             4    7     1       0.2803042461E-03       4    7    1         0.1474153397E-01      0.3096287115E-01
          0                 6           1             4    7     1       0.9947489423E-04       4    7    1         0.5232685873E-02      0.1089211468E-01

    ------------------------------------------------
       NWT REQUIRED            6 OUTER ITERATIONS 
       AND A TOTAL OF         11 INNER ITERATIONS.
    ------------------------------------------------

 NO OUTPUT CONTROL FOR STRESS PERIOD   24   TIME STEP   15
 
 SOLVING FOR HEAD 
                                                   Max.-Head-Change                         Max.-Flux-Residual
  Residual-Control   Outer-Iter.   Inner-Iter.     Column Row Layer    Maximum-Head-Change  Column Row Layer    Maximum-Flux-Residual          L2-NORM 
          0                 1           2             3    7     1       0.4915111219E-01       6    7    1         0.2005941679E+01      0.5921290648E+01
          0                 2           2             4    8     1       0.6287817865E-02       4    8    1         0.3358898017E+00      0.9176032449E+00
          0                 3           2             4    7     1       0.2217311544E-02       4    8    1         0.1169571509E+00      0.2551762478E+00
          0                 4           2             4    7     1       0.7879714152E-03       4    7    1         0.4140957150E-01      0.8889986366E-01
          0                 5           2             4    7     1       0.2799236662E-03       4    7    1         0.1471324774E-01      0.3125418671E-01
          0                 6           1             4    7     1       0.9940753382E-04       4    7    1         0.5226408408E-02      0.1099428995E-01

    ------------------------------------------------
       NWT REQUIRED            6 OUTER ITERATIONS 
       AND A TOTAL OF         11 INNER ITERATIONS.
    ------------------------------------------------

 NO OUTPUT CONTROL FOR STRESS PERIOD   24   TIME STEP   16
 
 SOLVING FOR HEAD 
                                                   Max.-Head-Change                         Max.-Flux-Residual
  Residual-Control   Outer-Iter.   Inner-Iter.     Column Row Layer    Maximum-Head-Change  Column Row Layer    Maximum-Flux-Residual          L2-NORM 
          0                 1           2             3    7     1       0.4870866393E-01       6    7    1         0.1968538670E+01      0.5868237402E+01
          0                 2           2             4    8     1       0.6307480522E-02       4    8    1         0.3369175889E+00      0.9182953442E+00
          0                 3           2             4    8     1       0.2221697983E-02       4    8    1         0.1173236240E+00      0.2572662084E+00
          0                 4           2             4    7     1       0.7869026397E-03       4    8    1         0.4141225063E-01      0.8966314907E-01
          0                 5           2             4    7     1       0.2797219574E-03       4    7    1         0.1469546620E-01      0.3152188384E-01
          0                 6           1             4    7     1       0.9939465810E-04       4    7    1         0.5223360316E-02      0.1108813399E-01

    ------------------------------------------------
       NWT REQUIRED            6 OUTER ITERATIONS 
       AND A TOTAL OF         11 INNER ITERATIONS.
    ------------------------------------------------

 NO OUTPUT CONTROL FOR STRESS PERIOD   24   TIME STEP   17
 
 SOLVING FOR HEAD 
                                                   Max.-Head-Change                         Max.-Flux-Residual
  Residual-Control   Outer-Iter.   Inner-Iter.     Column Row Layer    Maximum-Head-Change  Column Row Layer    Maximum-Flux-Residual          L2-NORM 
          0                 1           2             3    7     1       0.4827309114E-01       6    7    1         0.1932861947E+01      0.5817442138E+01
          0                 2           2             4    8     1       0.6323187555E-02       4    8    1         0.3377311753E+00      0.9191737236E+00
          0                 3           2             4    8     1       0.2227071370E-02       4    8    1         0.1176169163E+00      0.2591736628E+00
          0                 4           2             4    7     1       0.7863276697E-03       4    8    1         0.4151164995E-01      0.9035791006E-01
          0                 5           2             4    7     1       0.2796709115E-03       4    7    1         0.1468660322E-01      0.3176546247E-01
          0                 6           1             4    7     1       0.9942709175E-04       4    7    1         0.5223025284E-02      0.1117349959E-01

    ------------------------------------------------
       NWT REQUIRED            6 OUTER ITERATIONS 
       AND A TOTAL OF         11 INNER ITERATIONS.
    ------------------------------------------------

 NO OUTPUT CONTROL FOR STRESS PERIOD   24   TIME STEP   18
 
 SOLVING FOR HEAD 
                                                   Max.-Head-Change                         Max.-Flux-Residual
  Residual-Control   Outer-Iter.   Inner-Iter.     Column Row Layer    Maximum-Head-Change  Column Row Layer    Maximum-Flux-Residual          L2-NORM 
          0                 1           2             3    7     1       0.4784465794E-01       6    7    1         0.1898824280E+01      0.5712427936E+01
          0                 2           2             4    7     1       0.6189243403E-02       4    8    1         0.3318875271E+00      0.8580801470E+00
          0                 3           2             4    7     1       0.2200689107E-02       4    7    1         0.1155195870E+00      0.2325063095E+00
          0                 4           2             4    7     1       0.7817301408E-03       4    7    1         0.4109930085E-01      0.8029545811E-01
          0                 5           2             4    7     1       0.2774473878E-03       4    7    1         0.1459493053E-01      0.2807405682E-01
          0                 6           1             4    7     1       0.9839437400E-04       4    7    1         0.5178990257E-02      0.9829473578E-02

    ------------------------------------------------
       NWT REQUIRED            6 OUTER ITERATIONS 
       AND A TOTAL OF         11 INNER ITERATIONS.
    ------------------------------------------------

 NO OUTPUT CONTROL FOR STRESS PERIOD   24   TIME STEP   19
 
 SOLVING FOR HEAD 
                                                   Max.-Head-Change                         Max.-Flux-Residual
  Residual-Control   Outer-Iter.   Inner-Iter.     Column Row Layer    Maximum-Head-Change  Column Row Layer    Maximum-Flux-Residual          L2-NORM 
          0                 1           2             3    7     1       0.4742249023E-01       6    7    1         0.1865221752E+01      0.5893066740E+01
          0                 2           2             5    8     1      -0.7797664474E-02       5    8    1        -0.4337762344E+00      0.9477737072E+00
          0                 3           2             4    7     1       0.2184240055E-02       4    7    1         0.1148507319E+00      0.2530758913E+00
          0                 4           2             4    7     1       0.7740698963E-03       4    7    1         0.4077264999E-01      0.8291017234E-01
          0                 5           2             4    7     1       0.2740507147E-03       4    7    1         0.1444430510E-01      0.2801420718E-01
          0                 6           1             4    7     1       0.9694698439E-04       4    7    1         0.5112780537E-02      0.9606840764E-02

    ------------------------------------------------
       NWT REQUIRED            6 OUTER ITERATIONS 
       AND A TOTAL OF         11 INNER ITERATIONS.
    ------------------------------------------------

 NO OUTPUT CONTROL FOR STRESS PERIOD   24   TIME STEP   20
 
 SOLVING FOR HEAD 
                                                   Max.-Head-Change                         Max.-Flux-Residual
  Residual-Control   Outer-Iter.   Inner-Iter.     Column Row Layer    Maximum-Head-Change  Column Row Layer    Maximum-Flux-Residual          L2-NORM 
          0                 1           2             3    7     1       0.4700601414E-01       6    7    1         0.1830905424E+01      0.5740389560E+01
          0                 2           2             5    8     1      -0.6714859259E-02       5    8    1        -0.3738894577E+00      0.9093749350E+00
          0                 3           2             4    7     1       0.2167889731E-02       4    7    1         0.1140559077E+00      0.2433269519E+00
          0                 4           2             4    7     1       0.7678031160E-03       4    7    1         0.4046095842E-01      0.8057011144E-01
          0                 5           2             4    7     1       0.2716973464E-03       4    7    1         0.1432552553E-01      0.2742825987E-01
          0                 6           1             4    7     1       0.9607583938E-04       4    7    1         0.5068349426E-02      0.9451180345E-02

    ------------------------------------------------
       NWT REQUIRED            6 OUTER ITERATIONS 
       AND A TOTAL OF         11 INNER ITERATIONS.
    ------------------------------------------------

 NO OUTPUT CONTROL FOR STRESS PERIOD   24   TIME STEP   21
 
 SOLVING FOR HEAD 
                                                   Max.-Head-Change                         Max.-Flux-Residual
  Residual-Control   Outer-Iter.   Inner-Iter.     Column Row Layer    Maximum-Head-Change  Column Row Layer    Maximum-Flux-Residual          L2-NORM 
          0                 1           2             3    7     1       0.4659483282E-01       6    7    1         0.1796267104E+01      0.5607734691E+01
          0                 2           2             4    7     1       0.6067984000E-02       4    7    1         0.3205245662E+00      0.8776310124E+00
          0                 3           2             4    7     1       0.2150291583E-02       4    7    1         0.1131739806E+00      0.2354285433E+00
          0                 4           2             4    7     1       0.7612605627E-03       4    7    1         0.4012811974E-01      0.7868977909E-01
          0                 5           2             4    7     1       0.2692979876E-03       4    7    1         0.1420226223E-01      0.2695852055E-01
          0                 6           1             4    7     1       0.9520454329E-04       4    7    1         0.5023266286E-02      0.9326224768E-02

    ------------------------------------------------
       NWT REQUIRED            6 OUTER ITERATIONS 
       AND A TOTAL OF         11 INNER ITERATIONS.
    ------------------------------------------------

 NO OUTPUT CONTROL FOR STRESS PERIOD   24   TIME STEP   22
 
 SOLVING FOR HEAD 
                                                   Max.-Head-Change                         Max.-Flux-Residual
  Residual-Control   Outer-Iter.   Inner-Iter.     Column Row Layer    Maximum-Head-Change  Column Row Layer    Maximum-Flux-Residual          L2-NORM 
          0                 1           2             3    7     1       0.4618860683E-01       6    7    1         0.1761681494E+01      0.5491841078E+01
          0                 2           2             4    7     1       0.6018204500E-02       4    7    1         0.3180008459E+00      0.8514533073E+00
          0                 3           2             4    7     1       0.2131937928E-02       4    7    1         0.1122349507E+00      0.2290733012E+00
          0                 4           2             4    7     1       0.7545845503E-03       4    7    1         0.3978291377E-01      0.7718637365E-01
          0                 5           2             4    7     1       0.2668929043E-03       4    7    1         0.1407704243E-01      0.2658296573E-01
          0                 6           1             4    7     1       0.9434414054E-04       4    7    1         0.4978241805E-02      0.9225966033E-02

    ------------------------------------------------
       NWT REQUIRED            6 OUTER ITERATIONS 
       AND A TOTAL OF         11 INNER ITERATIONS.
    ------------------------------------------------

 NO OUTPUT CONTROL FOR STRESS PERIOD   24   TIME STEP   23
 
 SOLVING FOR HEAD 
                                                   Max.-Head-Change                         Max.-Flux-Residual
  Residual-Control   Outer-Iter.   Inner-Iter.     Column Row Layer    Maximum-Head-Change  Column Row Layer    Maximum-Flux-Residual          L2-NORM 
          0                 1           2             3    7     1       0.4578709605E-01       6    7    1         0.1727393813E+01      0.5389992692E+01
          0                 2           2             4    7     1       0.5966798926E-02       4    7    1         0.3153470388E+00      0.8299725378E+00
          0                 3           2             4    7     1       0.2113350503E-02       4    7    1         0.1112700264E+00      0.2239984773E+00
          0                 4           2             4    7     1       0.7479304337E-03       4    7    1         0.3943470337E-01      0.7599104135E-01
          0                 5           2             4    7     1       0.2645277765E-03       4    7    1         0.1395264701E-01      0.2628376815E-01
          0                 6           1             4    7     1       0.9350783750E-04       4    7    1         0.4934090949E-02      0.9145735189E-02

    ------------------------------------------------
       NWT REQUIRED            6 OUTER ITERATIONS 
       AND A TOTAL OF         11 INNER ITERATIONS.
    ------------------------------------------------

 NO OUTPUT CONTROL FOR STRESS PERIOD   24   TIME STEP   24
 
 SOLVING FOR HEAD 
                                                   Max.-Head-Change                         Max.-Flux-Residual
  Residual-Control   Outer-Iter.   Inner-Iter.     Column Row Layer    Maximum-Head-Change  Column Row Layer    Maximum-Flux-Residual          L2-NORM 
          0                 1           2             3    7     1       0.4538839628E-01       6    7    1         0.1693652494E+01      0.5256565720E+01
          0                 2           2             4    7     1       0.5818515635E-02       4    7    1         0.3098575678E+00      0.7724543935E+00
          0                 3           2             4    7     1       0.2040441431E-02       4    7    1         0.1082706187E+00      0.2012399448E+00
          0                 4           2             4    7     1       0.7148749416E-03       4    7    1         0.3799017160E-01      0.6802376708E-01
          0                 5           2             4    7     1       0.2502941511E-03       4    7    1         0.1330617457E-01      0.2347561657E-01
          0                 6           1             4    7     1       0.8759378555E-04       4    7    1         0.4658170005E-02      0.8144731484E-02

    ------------------------------------------------
       NWT REQUIRED            6 OUTER ITERATIONS 
       AND A TOTAL OF         11 INNER ITERATIONS.
    ------------------------------------------------

 NO OUTPUT CONTROL FOR STRESS PERIOD   24   TIME STEP   25
 
 SOLVING FOR HEAD 
                                                   Max.-Head-Change                         Max.-Flux-Residual
  Residual-Control   Outer-Iter.   Inner-Iter.     Column Row Layer    Maximum-Head-Change  Column Row Layer    Maximum-Flux-Residual          L2-NORM 
          0                 1           2             3    7     1       0.4498194784E-01       4    8    1        -0.1954853310E+01      0.5523063962E+01
          0                 2           2             4    8     1      -0.9565415055E-02       4    8    1        -0.5186542018E+00      0.9108234834E+00
          0                 3           2             4    8     1      -0.2578370668E-02       4    8    1        -0.1410518236E+00      0.2389355859E+00
          0                 4           2             4    8     1      -0.6925591807E-03       4    8    1        -0.3792949966E-01      0.7519460659E-01
          0                 5           2             4    6     1       0.2296524062E-03       4    6    1         0.1219935730E-01      0.2451324707E-01
          0                 6           1             4    6     1       0.8044231972E-04       4    6    1         0.4274765055E-02      0.8163946786E-02

    ------------------------------------------------
       NWT REQUIRED            6 OUTER ITERATIONS 
       AND A TOTAL OF         11 INNER ITERATIONS.
    ------------------------------------------------

 NO OUTPUT CONTROL FOR STRESS PERIOD   24   TIME STEP   26
 
 SOLVING FOR HEAD 
                                                   Max.-Head-Change                         Max.-Flux-Residual
  Residual-Control   Outer-Iter.   Inner-Iter.     Column Row Layer    Maximum-Head-Change  Column Row Layer    Maximum-Flux-Residual          L2-NORM 
          0                 1           2             3    7     1       0.4455049729E-01       5    7    1        -0.2084028243E+01      0.5736211925E+01
          0                 2           2             5    7     1      -0.9671453595E-02       5    7    1        -0.5370486123E+00      0.9928568339E+00
          0                 3           2             5    7     1      -0.2523118040E-02       5    7    1        -0.1413567862E+00      0.2517120456E+00
          0                 4           2             5    7     1      -0.6550316617E-03       5    7    1        -0.3678286807E-01      0.7350559692E-01
          0                 5           2             4    6     1       0.2250787601E-03       4    6    1         0.1202704219E-01      0.2231082612E-01
          0                 6           1             4    6     1       0.7821871899E-04       4    6    1         0.4182566846E-02      0.6982428577E-02

    ------------------------------------------------
       NWT REQUIRED            6 OUTER ITERATIONS 
       AND A TOTAL OF         11 INNER ITERATIONS.
    ------------------------------------------------

 NO OUTPUT CONTROL FOR STRESS PERIOD   24   TIME STEP   27
 
 SOLVING FOR HEAD 
                                                   Max.-Head-Change                         Max.-Flux-Residual
  Residual-Control   Outer-Iter.   Inner-Iter.     Column Row Layer    Maximum-Head-Change  Column Row Layer    Maximum-Flux-Residual          L2-NORM 
          0                 1           2             3    7     1       0.4408833449E-01       5    7    1        -0.1863496338E+01      0.5510111810E+01
          0                 2           2             5    7     1      -0.8649707703E-02       5    7    1        -0.4800023963E+00      0.9251756587E+00
          0                 3           2             5    7     1      -0.2257638348E-02       5    7    1        -0.1264500805E+00      0.2321529060E+00
          0                 4           2             4    6     1       0.6406064610E-03       4    6    1         0.3427611410E-01      0.6812980874E-01
          0                 5           2             4    6     1       0.2223150853E-03       4    6    1         0.1190038568E-01      0.2080509498E-01
          0                 6           1             4    6     1       0.7709306273E-04       4    6    1         0.4129108408E-02      0.6547264626E-02

    ------------------------------------------------
       NWT REQUIRED            6 OUTER ITERATIONS 
       AND A TOTAL OF         11 INNER ITERATIONS.
    ------------------------------------------------

 NO OUTPUT CONTROL FOR STRESS PERIOD   24   TIME STEP   28
 
 SOLVING FOR HEAD 
                                                   Max.-Head-Change                         Max.-Flux-Residual
  Residual-Control   Outer-Iter.   Inner-Iter.     Column Row Layer    Maximum-Head-Change  Column Row Layer    Maximum-Flux-Residual          L2-NORM 
          0                 1           2             3    7     1       0.4312852368E-01       4    7    1        -0.2062594873E+01      0.5662878213E+01
          0                 2           2             4    7     1      -0.1053694171E-01       4    7    1        -0.5649771859E+00      0.1021827024E+01
          0                 3           2             4    7     1      -0.2899788972E-02       4    7    1        -0.1560756428E+00      0.2613441520E+00
          0                 4           2             4    7     1      -0.7963463300E-03       4    7    1        -0.4290675987E-01      0.7445723739E-01
          0                 5           2             4    7     1      -0.2181179392E-03       4    7    1        -0.1177701453E-01      0.2167077304E-01
          0                 6           1             4    6     1       0.5959555000E-04       4    6    1         0.3260295196E-02      0.6415759345E-02

    ------------------------------------------------
       NWT REQUIRED            6 OUTER ITERATIONS 
       AND A TOTAL OF         11 INNER ITERATIONS.
    ------------------------------------------------

 NO OUTPUT CONTROL FOR STRESS PERIOD   24   TIME STEP   29
 
 SOLVING FOR HEAD 
                                                   Max.-Head-Change                         Max.-Flux-Residual
  Residual-Control   Outer-Iter.   Inner-Iter.     Column Row Layer    Maximum-Head-Change  Column Row Layer    Maximum-Flux-Residual          L2-NORM 
          0                 1           2             3    7     1       0.4193503612E-01       4    7    1        -0.2010043209E+01      0.5467343342E+01
          0                 2           2             4    7     1      -0.1026064770E-01       4    7    1        -0.5502510884E+00      0.9561707328E+00
          0                 3           2             4    7     1      -0.2824180534E-02       4    7    1        -0.1519743433E+00      0.2395521415E+00
          0                 4           2             4    7     1      -0.7761587865E-03       4    7    1        -0.4179119500E-01      0.6711294811E-01
          0                 5           2             4    7     1      -0.2129062155E-03       4    7    1        -0.1148125272E-01      0.1912252288E-01
          0                 6           1             4    7     1      -0.5826378823E-04       4    7    1        -0.3147706374E-02      0.5503679359E-02

    ------------------------------------------------
       NWT REQUIRED            6 OUTER ITERATIONS 
       AND A TOTAL OF         11 INNER ITERATIONS.
    ------------------------------------------------

 NO OUTPUT CONTROL FOR STRESS PERIOD   24   TIME STEP   30



 STREAM LISTING     PERIOD     24   STEP       30

 LAYER ROW COL. STREAM  RCH.  FLOW INTO     FLOW TO   FLOW OUT OF   OVRLND.     DIRECT     STREAM       STREAM     STREAM     STREAM   STREAMBED  STREAMBED
                SEG.NO.  NO.  STRM. RCH.    AQUIFER    STRM. RCH.    RUNOFF     PRECIP       ET          HEAD       DEPTH      WIDTH   CONDCTNC.   GRADIENT

   1    1    1     1     1    1.5750E+01  1.9239E-01   1.5558E+01  0.000E+00  0.000E+00  0.000E+00  1.09407E+03  1.025E+00  1.062E+01  4.780E-02  1.342E+00
   1    2    2     1     2    1.5558E+01  2.9660E-01   1.5261E+01  0.000E+00  0.000E+00  0.000E+00  1.08908E+03  1.020E+00  1.054E+01  7.378E-02  1.340E+00
   1    3    3     1     3    1.5261E+01  2.5164E-01   1.5010E+01  0.000E+00  0.000E+00  0.000E+00  1.08343E+03  1.015E+00  1.045E+01  6.268E-02  1.338E+00
   1    3    4     1     4    1.5010E+01  2.3064E-01   1.4779E+01  0.000E+00  0.000E+00  0.000E+00  1.07842E+03  1.010E+00  1.036E+01  5.752E-02  1.337E+00
   1    4    5     2     1    1.2779E+01  2.9653E-01   1.2482E+01  0.000E+00  0.000E+00  0.000E+00  1.07274E+03  8.017E-01  1.200E+01  7.800E-02  1.267E+00
   1    5    6     2     2    1.2482E+01  2.2750E-01   1.2255E+01  0.000E+00  0.000E+00  0.000E+00  1.06730E+03  7.917E-01  1.200E+01  6.000E-02  1.264E+00
   1    6    6     2     3    1.2255E+01  2.2697E-01   1.2028E+01  0.000E+00  0.000E+00  0.000E+00  1.06258E+03  7.829E-01  1.200E+01  6.000E-02  1.261E+00
   1    7    6     2     4    1.2028E+01  2.2645E-01   1.1802E+01  0.000E+00  0.000E+00  0.000E+00  1.05785E+03  7.741E-01  1.200E+01  6.000E-02  1.258E+00
   1    8    6     2     5    1.1802E+01  2.2591E-01   1.1576E+01  0.000E+00  0.000E+00  0.000E+00  1.05312E+03  7.652E-01  1.200E+01  6.000E-02  1.255E+00
   1    3    5     3     1    2.0000E+00  2.8252E-01   1.7175E+00  0.000E+00  0.000E+00  0.000E+00  1.07555E+03  1.909E+00  9.636E+00  7.227E-02  1.955E+00
   1    3    6     3     2    1.7175E+00  2.4905E-01   1.4684E+00  0.000E+00  0.000E+00  0.000E+00  1.07264E+03  1.727E+00  8.909E+00  6.682E-02  1.864E+00
   1    3    7     3     3    1.4684E+00  1.9718E-01   1.2712E+00  0.000E+00  0.000E+00  0.000E+00  1.06987E+03  1.555E+00  8.218E+00  5.547E-02  1.777E+00
   1    4    8     3     4    1.2712E+00  2.2567E-01   1.0456E+00  0.000E+00  0.000E+00  0.000E+00  1.06682E+03  1.364E+00  7.455E+00  6.709E-02  1.682E+00
   1    5    8     3     5    1.0456E+00  1.5790E-01   8.8768E-01  0.000E+00  0.000E+00  0.000E+00  1.06362E+03  1.164E+00  6.655E+00  4.991E-02  1.582E+00
   1    6    8     3     6    8.8768E-01  5.5980E-02   8.3170E-01  0.000E+00  0.000E+00  0.000E+00  1.06158E+03  1.036E+00  6.145E+00  1.844E-02  1.518E+00
   1    5   10     4     1    1.0000E+01  9.0919E-02   9.9091E+00  0.000E+00  0.000E+00  0.000E+00  1.07836E+03  6.368E-01  1.000E+01  2.500E-02  1.212E+00
   1    5    9     4     2    9.9091E+00  1.8158E-01   9.7275E+00  0.000E+00  0.000E+00  0.000E+00  1.07154E+03  6.315E-01  1.000E+01  5.000E-02  1.211E+00
   1    6    8     4     3    9.7275E+00  1.2689E-01   9.6006E+00  0.000E+00  0.000E+00  0.000E+00  1.06381E+03  6.256E-01  1.000E+01  3.500E-02  1.209E+00
   1    6    8     5     1    1.0432E+01  2.2686E-01   1.0205E+01  0.000E+00  0.000E+00  0.000E+00  1.05868E+03  6.790E-01  1.542E+01  6.166E-02  1.226E+00
   1    7    7     5     2    1.0205E+01  2.7894E-01   9.9265E+00  0.000E+00  0.000E+00  0.000E+00  1.05417E+03  6.732E-01  1.519E+01  7.594E-02  1.224E+00
   1    8    7     5     3    9.9265E+00  1.9221E-01   9.7343E+00  0.000E+00  0.000E+00  0.000E+00  1.04992E+03  6.676E-01  1.497E+01  5.241E-02  1.223E+00
   1    8    6     5     4    9.7343E+00  1.3577E-01   9.5985E+00  0.000E+00  0.000E+00  0.000E+00  1.04691E+03  6.637E-01  1.482E+01  3.706E-02  1.221E+00
   1    9    6     6     1    2.1174E+01  2.4608E-01   2.0928E+01  0.000E+00  0.000E+00  0.000E+00  1.04383E+03  1.101E+00  1.200E+01  6.000E-02  1.367E+00
   1   10    7     6     2    2.0928E+01  2.4562E-01   2.0682E+01  0.000E+00  0.000E+00  0.000E+00  1.03928E+03  1.094E+00  1.200E+01  6.000E-02  1.365E+00
   1   11    7     6     3    2.0682E+01  2.4515E-01   2.0437E+01  0.000E+00  0.000E+00  0.000E+00  1.03472E+03  1.086E+00  1.200E+01  6.000E-02  1.362E+00
   1   12    7     6     4    2.0437E+01  2.4469E-01   2.0193E+01  0.000E+00  0.000E+00  0.000E+00  1.03017E+03  1.078E+00  1.200E+01  6.000E-02  1.359E+00
   1   13    7     6     5    2.0193E+01  4.4150E-03   2.0188E+01  0.000E+00  0.000E+00  0.000E+00  1.02698E+03  1.074E+00  1.200E+01  2.400E-02  6.132E-02
   1   14    9     7     1    1.5000E+02  1.3529E+00   1.4865E+02  0.000E+00  0.000E+00  0.000E+00  1.03987E+03  2.288E+00  5.529E+01  5.593E-01  8.063E-01
   1   13    8     7     2    1.4865E+02  1.9100E+00   1.4674E+02  0.000E+00  0.000E+00  0.000E+00  1.03478E+03  2.279E+00  5.526E+01  6.148E-01  1.036E+00
   1   13    7     7     3    1.4674E+02  1.6136E+00   1.4512E+02  0.000E+00  0.000E+00  0.000E+00  1.02969E+03  2.270E+00  5.521E+01  5.584E-01  9.632E-01
   1   13    6     8     1    1.6531E+02  1.0442E+00   1.6427E+02  0.000E+00  0.000E+00  0.000E+00  1.02479E+03  2.918E+00  4.231E+01  4.312E-01  8.073E-01
   1   13    5     8     2    1.6427E+02  2.9952E-01   1.6397E+02  0.000E+00  0.000E+00  0.000E+00  1.01854E+03  2.913E+00  4.225E+01  4.305E-01  2.319E-01
   1   13    4     8     3    1.6397E+02 -2.0017E+00   1.6597E+02  0.000E+00  0.000E+00  0.000E+00  1.01229E+03  2.919E+00  4.233E+01  4.313E+00 -1.547E-01
   1   13    3     8     4    1.6597E+02 -3.4458E+00   1.6942E+02  0.000E+00  0.000E+00  0.000E+00  1.00606E+03  2.937E+00  4.259E+01  4.340E+00 -2.647E-01
   1   13    2     8     5    1.6942E+02 -2.5336E+00   1.7195E+02  0.000E+00  0.000E+00  0.000E+00  9.99832E+02  2.957E+00  4.287E+01  4.369E+00 -1.933E-01
   1   13    1     8     6    1.7195E+02 -1.9710E+00   1.7392E+02  0.000E+00  0.000E+00  0.000E+00  9.94846E+02  2.971E+00  4.308E+01  2.634E+00 -2.494E-01
   1    8    6     9     1    0.0000E+00  0.0000E+00   0.0000E+00  0.000E+00  0.000E+00  0.000E+00  1.07875E+03  0.000E+00  4.000E+00  0.000E+00  1.000E+00
   1    8    5     9     2    0.0000E+00  0.0000E+00   0.0000E+00  0.000E+00  0.000E+00  0.000E+00  1.07825E+03  0.000E+00  4.000E+00  0.000E+00  1.000E+00





UNSATURATED ZONE PACKAGE VOLUMETRIC BUDGET FOR  TIME STEP    30 STRESS PERIOD   24
  ------------------------------------------------------------------------------



     CUMULATIVE VOLUMES      L**3       RATES FOR THIS TIME STEP      L**3/T
     ------------------                 ------------------------

           IN:                                      IN:
           ---                                      ---
        INFILTRATION =  6017872700.1702          INFILTRATION =           0.8475

          OUT:                                     OUT:
          ----                                     ----
              UZF ET =   860962063.8251                UZF ET =           0.7500
        UZF RECHARGE =  4726787006.1973          UZF RECHARGE =           8.8016

            IN - OUT =   430123630.1478              IN - OUT =          -8.7041

          STORAGE:                                 STORAGE:
          --------                                 --------
      STORAGE CHANGE =   430962476.4182        STORAGE CHANGE =          -8.7041

 PERCENT DISCREPANCY IS DIFFERENCE BETWEEN IN-OUT MINUS CHANGE IN STORAGE
 DIVIDED BY THE AVERAGE OF IN AND OUT TIMES 100

 PERCENT DISCREPANCY =          -0.00     PERCENT DISCREPANCY =           0.00






1
  VOLUMETRIC BUDGET FOR AGRICULTURAL FIELDS AT  END OF TIME STEP   30, STRESS PERIOD  24
  ------------------------------------------------------------------------------

     CUMULATIVE VOLUMES      L**3       RATES FOR THIS TIME STEP      L**3/T
     ------------------                 ------------------------

           IN:                                      IN:
           ---                                      ---
               AG WELLS  =  5381544960.0000                 AG WELLS  =           0.0000
      DIVERSION SEGMENTS =   585000640.0000        DIVERSION SEGMENTS =           0.0000
       IRRIGATION PONDS  =           0.0000         IRRIGATION PONDS  =           0.0000
           GW IRRIGATION =           0.0000             GW IRRIGATION =           0.0000
           SW IRRIGATION =           0.0000             SW IRRIGATION =           0.0000
        SYSTEM LOSSES GW =           0.0000          SYSTEM LOSSES GW =           0.0000
        SYSTEM LOSSES SW =           0.0000          SYSTEM LOSSES SW =           0.0000

                TOTAL IN =  5966545408.0000                  TOTAL IN =           0.0000

          OUT:                                     OUT:
          ----                                     ----
               AG WELLS  =           0.0000                 AG WELLS  =           0.0000
      DIVERSION SEGMENTS =           0.0000        DIVERSION SEGMENTS =           0.0000
       IRRIGATION PONDS  =           0.0000         IRRIGATION PONDS  =           0.0000
           GW IRRIGATION =  5381544960.0000             GW IRRIGATION =           0.0000
           SW IRRIGATION =   585012352.0000             SW IRRIGATION =           0.0000
        SYSTEM LOSSES GW =           0.0000          SYSTEM LOSSES GW =           0.0000
        SYSTEM LOSSES SW =           0.0000          SYSTEM LOSSES SW =           0.0000

               TOTAL OUT =  5966557184.0000                 TOTAL OUT =           0.0000

                IN - OUT =      -11776.0000                  IN - OUT =           0.0000

     PERCENT DISCREPANCY =          -0.00         PERCENT DISCREPANCY =           0.00



1
  VOLUMETRIC BUDGET FOR ENTIRE MODEL AT END OF TIME STEP   30, STRESS PERIOD  24
  ------------------------------------------------------------------------------

     CUMULATIVE VOLUMES      L**3       RATES FOR THIS TIME STEP      L**3/T
     ------------------                 ------------------------

           IN:                                      IN:
           ---                                      ---
             STORAGE     =  4760384000.0000               STORAGE     =          11.6850
       CONSTANT HEAD     =           0.0000         CONSTANT HEAD     =           0.0000
     HEAD DEP BOUNDS     =    17327054.0000       HEAD DEP BOUNDS     =           0.2869
      STREAM LEAKAGE     =   735788672.0000        STREAM LEAKAGE     =          11.7824
        UZF RECHARGE     =  4726787584.0000          UZF RECHARGE     =           8.8016
               GW ET     =           0.0000                 GW ET     =           0.0000
     SURFACE LEAKAGE     =           0.0000       SURFACE LEAKAGE     =           0.0000
           AG WELLS      =           0.0000             AG WELLS      =           0.0000

                TOTAL IN = 10240286720.0000                  TOTAL IN =          32.5559

          OUT:                                     OUT:
          ----                                     ----
             STORAGE     =  4207254784.0000               STORAGE     =          22.3168
       CONSTANT HEAD     =           0.0000         CONSTANT HEAD     =           0.0000
     HEAD DEP BOUNDS     =    17602442.0000       HEAD DEP BOUNDS     =           0.2886
      STREAM LEAKAGE     =   632467904.0000        STREAM LEAKAGE     =           9.9521
        UZF RECHARGE     =           0.0000          UZF RECHARGE     =           0.0000
               GW ET     =     1320838.1250                 GW ET     =           0.0000
     SURFACE LEAKAGE     =           0.0000       SURFACE LEAKAGE     =           0.0000
           AG WELLS      =  5381544960.0000             AG WELLS      =           0.0000

               TOTAL OUT = 10240190464.0000                 TOTAL OUT =          32.5575

                IN - OUT =       96256.0000                  IN - OUT =      -1.5793E-03

     PERCENT DISCREPANCY =           0.00         PERCENT DISCREPANCY =          -0.00






         TIME SUMMARY AT END OF TIME STEP   30 IN STRESS PERIOD   24
                    SECONDS     MINUTES      HOURS       DAYS        YEARS
                    -----------------------------------------------------------
   TIME STEP LENGTH  87667.      1461.1      24.352      1.0147     2.77799E-03
 STRESS PERIOD TIME 2.63000E+06  43833.      730.56      30.440     8.33397E-02
         TOTAL TIME 6.05767E+07 1.00961E+06  16827.      701.12      1.9196    
1
1
                            STRESS PERIOD NO.   25, LENGTH =   2630000.    
                            -----------------------------------------------

                              NUMBER OF TIME STEPS =    30

                               MULTIPLIER FOR DELT =     1.000

                            INITIAL TIME STEP SIZE =   87666.66    

 REUSING NON-PARAMETER GHB CELLS FROM LAST STRESS PERIOD

      2 GHB CELLS

 REUSING STREAM SEGMENT DATA FROM LAST STRESS PERIOD



            AREAL INFILTRATION RATE
 READING ON UNIT   19 WITH FORMAT: (FREE)              

            1           2           3           4           5           6           7           8           9          10
 ........................................................................................................................
   1   1.0000E-10  2.0000E-10   0.000       0.000       0.000       0.000       0.000       0.000       0.000       0.000    
   2   2.0000E-10  1.0000E-10  2.0000E-10   0.000       0.000      8.0000E-10  8.0000E-10  5.0000E-10   0.000       0.000    
   3    0.000      5.0000E-10  1.0000E-10  1.0000E-10  8.0000E-10  8.0000E-10  5.0000E-10  5.0000E-10   0.000       0.000    
   4   8.0000E-10  5.0000E-10  1.0000E-10  1.0000E-10  1.0000E-10  1.0000E-10  1.0000E-10  1.0000E-10  2.0000E-10   0.000    
   5   8.0000E-10  5.0000E-10  1.0000E-10  1.0000E-10  1.0000E-10  1.0000E-10  1.0000E-10  1.0000E-10  1.0000E-10  1.0000E-10
   6   8.0000E-10  5.0000E-10  5.0000E-10  2.0000E-10  2.0000E-10  1.0000E-10  1.0000E-10  1.0000E-10  1.0000E-10  5.0000E-10
   7   8.0000E-10  5.0000E-10  5.0000E-10  2.0000E-10  2.0000E-10  1.0000E-10  1.0000E-10  2.0000E-10  2.0000E-10   0.000    
   8    0.000      5.0000E-10  5.0000E-10  2.0000E-10  2.0000E-10  1.0000E-10  1.0000E-10  2.0000E-10  5.0000E-10   0.000    
   9    0.000      5.0000E-10  5.0000E-10  2.0000E-10  2.0000E-10  1.0000E-10  1.0000E-10  2.0000E-10  5.0000E-10   0.000    
  10    0.000      5.0000E-10  5.0000E-10  2.0000E-10  2.0000E-10  1.0000E-10  1.0000E-10  2.0000E-10  5.0000E-10  8.0000E-10
  11    0.000      1.0000E-10  1.0000E-10  1.0000E-10  1.0000E-10  1.0000E-10  1.0000E-10  2.0000E-10  5.0000E-10   0.000    
  12   1.0000E-10  1.0000E-10  1.0000E-10  1.0000E-10  1.0000E-10  1.0000E-10  1.0000E-10  1.0000E-10  2.0000E-10   0.000    
  13   1.0000E-10  1.0000E-10  2.0000E-10  2.0000E-10  2.0000E-10  2.0000E-10  2.0000E-10  1.0000E-10  1.0000E-10   0.000    
  14    0.000      2.0000E-10  5.0000E-10  5.0000E-10  5.0000E-10  5.0000E-10  5.0000E-10  2.0000E-10  1.0000E-10   0.000    
  15    0.000       0.000      8.0000E-10  8.0000E-10  8.0000E-10  8.0000E-10   0.000       0.000       0.000       0.000    

                  ET RATE =  5.000000E-10

 USING ET EXTINCTION DEPTH FROM PREVIOUS STRESS PERIOD. CURRENT PERIOD IS:      25

 USING EXTINCTION WATER CONTENT FROM PREVIOUS STRESS PERIOD. CURRENT PERIOD IS:      25

 USING AIR ENTRY PRESSURE FROM PREVIOUS STRESS PERIOD. CURRENT PERIOD IS:      25

 USING ROOT PRESSURE HEAD FROM PREVIOUS STRESS PERIOD. CURRENT PERIOD IS:      25

 USING ROOT ACTIVITY FROM PREVIOUS STRESS PERIOD. CURRENT PERIOD IS:      25

 PROCESSING AG STRESS PERIOD DATA

 READING AG STRESS PERIOD DATA

 READING IRRIGATION SEGMENT

 READING IRRIGATION WELL

 READING SUPPLEMENTAL WELL

 NO IRRPOND OR REUSING IRRPOND DATA FROM LAST STRESS PERIOD

 END PROCESSING AG STRESS PERIOD DATA OPTIONS
 
 SOLVING FOR HEAD 
                                                   Max.-Head-Change                         Max.-Flux-Residual
  Residual-Control   Outer-Iter.   Inner-Iter.     Column Row Layer    Maximum-Head-Change  Column Row Layer    Maximum-Flux-Residual          L2-NORM 
          0                 1           2             3    7     1       0.4078861755E-01       5    6    1        -0.2100983560E+01      0.5692380599E+01
          0                 2           2             5    6     1      -0.1000722780E-01       5    6    1        -0.5456966687E+00      0.1061297413E+01
          0                 3           2             4    7     1      -0.2681709427E-02       5    6    1        -0.1472145285E+00      0.2700601194E+00
          0                 4           2             4    7     1      -0.7396444212E-03       4    7    1        -0.3971209524E-01      0.7436335742E-01
          0                 5           2             4    7     1      -0.2038637459E-03       4    7    1        -0.1095241598E-01      0.2069936869E-01
          0                 6           1             4    7     1      -0.5613516592E-04       4    7    1        -0.3018139288E-02      0.5784951553E-02

    ------------------------------------------------
       NWT REQUIRED            6 OUTER ITERATIONS 
       AND A TOTAL OF         11 INNER ITERATIONS.
    ------------------------------------------------

 NO OUTPUT CONTROL FOR STRESS PERIOD   25   TIME STEP    1
 
 SOLVING FOR HEAD 
                                                   Max.-Head-Change                         Max.-Flux-Residual
  Residual-Control   Outer-Iter.   Inner-Iter.     Column Row Layer    Maximum-Head-Change  Column Row Layer    Maximum-Flux-Residual          L2-NORM 
          0                 1           2             3    7     1       0.3969184267E-01       5    6    1        -0.1890791027E+01      0.5448009387E+01
          0                 2           2             4    7     1      -0.9213583145E-02       4    7    1        -0.4930160993E+00      0.9963270090E+00
          0                 3           2             4    7     1      -0.2545319257E-02       4    7    1        -0.1365726880E+00      0.2517240093E+00
          0                 4           2             4    7     1      -0.7029640310E-03       4    7    1        -0.3770447349E-01      0.6923548643E-01
          0                 5           2             4    7     1      -0.1940513944E-03       4    7    1        -0.1041308103E-01      0.1924679063E-01
          0                 6           1             4    7     1      -0.5352937276E-04       4    7    1        -0.2874087995E-02      0.5366078580E-02

    ------------------------------------------------
       NWT REQUIRED            6 OUTER ITERATIONS 
       AND A TOTAL OF         11 INNER ITERATIONS.
    ------------------------------------------------

 NO OUTPUT CONTROL FOR STRESS PERIOD   25   TIME STEP    2
 
 SOLVING FOR HEAD 
                                                   Max.-Head-Change                         Max.-Flux-Residual
  Residual-Control   Outer-Iter.   Inner-Iter.     Column Row Layer    Maximum-Head-Change  Column Row Layer    Maximum-Flux-Residual          L2-NORM 
          0                 1           2             3    7     1       0.3864154242E-01       4    7    1        -0.1703917800E+01      0.5226577585E+01
          0                 2           2             4    7     1      -0.8741872944E-02       4    7    1        -0.4674120568E+00      0.9376250456E+00
          0                 3           2             4    7     1      -0.2417573248E-02       4    7    1        -0.1296160837E+00      0.2351490895E+00
          0                 4           2             4    7     1      -0.6684854373E-03       4    7    1        -0.3582246090E-01      0.6461733008E-01
          0                 5           2             4    7     1      -0.1847890554E-03       4    7    1        -0.9905610750E-02      0.1794716605E-01
          0                 6           1             4    7     1      -0.5105697483E-04       4    7    1        -0.2737947906E-02      0.4994992688E-02

    ------------------------------------------------
       NWT REQUIRED            6 OUTER ITERATIONS 
       AND A TOTAL OF         11 INNER ITERATIONS.
    ------------------------------------------------

 NO OUTPUT CONTROL FOR STRESS PERIOD   25   TIME STEP    3
 
 SOLVING FOR HEAD 
                                                   Max.-Head-Change                         Max.-Flux-Residual
  Residual-Control   Outer-Iter.   Inner-Iter.     Column Row Layer    Maximum-Head-Change  Column Row Layer    Maximum-Flux-Residual          L2-NORM 
          0                 1           2             3    7     1       0.3763476027E-01       4    7    1        -0.1615726894E+01      0.5024821611E+01
          0                 2           2             4    7     1      -0.8300073326E-02       4    7    1        -0.4434797748E+00      0.8843672473E+00
          0                 3           2             4    7     1      -0.2297572816E-02       4    7    1        -0.1230957819E+00      0.2201006858E+00
          0                 4           2             4    7     1      -0.6359874322E-03       4    7    1        -0.3405310688E-01      0.6043814035E-01
          0                 5           2             4    7     1      -0.1760238897E-03       4    7    1        -0.9426836835E-02      0.1677810259E-01
          0                 6           1             4    7     1      -0.4870595353E-04       4    7    1        -0.2608969678E-02      0.4664280622E-02

    ------------------------------------------------
       NWT REQUIRED            6 OUTER ITERATIONS 
       AND A TOTAL OF         11 INNER ITERATIONS.
    ------------------------------------------------

 NO OUTPUT CONTROL FOR STRESS PERIOD   25   TIME STEP    4
 
 SOLVING FOR HEAD 
                                                   Max.-Head-Change                         Max.-Flux-Residual
  Residual-Control   Outer-Iter.   Inner-Iter.     Column Row Layer    Maximum-Head-Change  Column Row Layer    Maximum-Flux-Residual          L2-NORM 
          0                 1           2             3    7     1       0.3666577123E-01       4    7    1        -0.1533300919E+01      0.4869262623E+01
          0                 2           2             4    7     1      -0.8048821873E-02       4    7    1        -0.4260328072E+00      0.8517267199E+00
          0                 3           2             4    7     1      -0.2257159600E-02       4    7    1        -0.1197717324E+00      0.2136955786E+00
          0                 4           2             4    7     1      -0.6332254527E-03       4    7    1        -0.3356998574E-01      0.5922640522E-01
          0                 5           2             4    7     1      -0.1777073506E-03       4    7    1        -0.9419426857E-02      0.1659361616E-01
          0                 6           1             4    7     1      -0.4988722824E-04       4    7    1        -0.2643677993E-02      0.4651555165E-02

    ------------------------------------------------
       NWT REQUIRED            6 OUTER ITERATIONS 
       AND A TOTAL OF         11 INNER ITERATIONS.
    ------------------------------------------------

 NO OUTPUT CONTROL FOR STRESS PERIOD   25   TIME STEP    5
 
 SOLVING FOR HEAD 
                                                   Max.-Head-Change                         Max.-Flux-Residual
  Residual-Control   Outer-Iter.   Inner-Iter.     Column Row Layer    Maximum-Head-Change  Column Row Layer    Maximum-Flux-Residual          L2-NORM 
          0                 1           2             4    6     1      -0.4375787576E-01       4    6    1        -0.2375067766E+01      0.5236926288E+01
          0                 2           2             4    6     1      -0.1209270773E-01       4    6    1        -0.6454245102E+00      0.1031564803E+01
          0                 3           2             4    7     1      -0.2276148103E-02       4    7    1        -0.1202587855E+00      0.2246966409E+00
          0                 4           2             4    7     1      -0.6322889792E-03       4    7    1        -0.3390431341E-01      0.5697910121E-01
          0                 5           2             4    7     1      -0.1756975538E-03       4    7    1        -0.9370915316E-02      0.1555865467E-01
          0                 6           1             4    7     1      -0.4883641045E-04       4    7    1        -0.2607177257E-02      0.4323909640E-02

    ------------------------------------------------
       NWT REQUIRED            6 OUTER ITERATIONS 
       AND A TOTAL OF         11 INNER ITERATIONS.
    ------------------------------------------------

 NO OUTPUT CONTROL FOR STRESS PERIOD   25   TIME STEP    6
 
 SOLVING FOR HEAD 
                                                   Max.-Head-Change                         Max.-Flux-Residual
  Residual-Control   Outer-Iter.   Inner-Iter.     Column Row Layer    Maximum-Head-Change  Column Row Layer    Maximum-Flux-Residual          L2-NORM 
          0                 1           2             4    6     1      -0.4348830223E-01       4    6    1        -0.2360240252E+01      0.5101665622E+01
          0                 2           2             4    6     1      -0.1201060986E-01       4    6    1        -0.6414678081E+00      0.1007350186E+01
          0                 3           2             4    7     1      -0.2208910362E-02       4    7    1        -0.1182692616E+00      0.1952759949E+00
          0                 4           2             4    7     1      -0.6133612590E-03       4    7    1        -0.3275041708E-01      0.5350858500E-01
          0                 5           2             4    7     1      -0.1703703614E-03       4    7    1        -0.9099100560E-02      0.1487253124E-01
          0                 6           1             4    7     1      -0.4733737441E-04       4    7    1        -0.2527470843E-02      0.4135489194E-02

    ------------------------------------------------
       NWT REQUIRED            6 OUTER ITERATIONS 
       AND A TOTAL OF         11 INNER ITERATIONS.
    ------------------------------------------------

 NO OUTPUT CONTROL FOR STRESS PERIOD   25   TIME STEP    7
 
 SOLVING FOR HEAD 
                                                   Max.-Head-Change                         Max.-Flux-Residual
  Residual-Control   Outer-Iter.   Inner-Iter.     Column Row Layer    Maximum-Head-Change  Column Row Layer    Maximum-Flux-Residual          L2-NORM 
          0                 1           2             4    6     1      -0.4250976351E-01       4    6    1        -0.2306796831E+01      0.4956106572E+01
          0                 2           2             4    6     1      -0.1173723167E-01       4    6    1        -0.6270672433E+00      0.9776456413E+00
          0                 3           2             4    7     1      -0.2153163239E-02       4    7    1        -0.1160521602E+00      0.1979687232E+00
          0                 4           2             4    7     1      -0.5975829318E-03       4    7    1        -0.3186888155E-01      0.5148299242E-01
          0                 5           2             4    7     1      -0.1659073827E-03       4    7    1        -0.8865952401E-02      0.1427863394E-01
          0                 6           1             4    7     1      -0.4607574728E-04       4    7    1        -0.2460866977E-02      0.3970243052E-02

    ------------------------------------------------
       NWT REQUIRED            6 OUTER ITERATIONS 
       AND A TOTAL OF         11 INNER ITERATIONS.
    ------------------------------------------------

 NO OUTPUT CONTROL FOR STRESS PERIOD   25   TIME STEP    8
 
 SOLVING FOR HEAD 
                                                   Max.-Head-Change                         Max.-Flux-Residual
  Residual-Control   Outer-Iter.   Inner-Iter.     Column Row Layer    Maximum-Head-Change  Column Row Layer    Maximum-Flux-Residual          L2-NORM 
          0                 1           2             4    6     1      -0.4085210534E-01       4    6    1        -0.2216361792E+01      0.4799914029E+01
          0                 2           2             4    6     1      -0.1128061248E-01       4    6    1        -0.6026626403E+00      0.9422009493E+00
          0                 3           2             4    7     1      -0.2108619154E-02       4    7    1        -0.1136260796E+00      0.1894278396E+00
          0                 4           2             4    7     1      -0.5848731645E-03       4    7    1        -0.3120982118E-01      0.4959093896E-01
          0                 5           2             4    7     1      -0.1622858510E-03       4    7    1        -0.8675831585E-02      0.1376051374E-01
          0                 6           1             4    7     1      -0.4504511445E-04       4    7    1        -0.2406798987E-02      0.3826607051E-02

    ------------------------------------------------
       NWT REQUIRED            6 OUTER ITERATIONS 
       AND A TOTAL OF         11 INNER ITERATIONS.
    ------------------------------------------------

 NO OUTPUT CONTROL FOR STRESS PERIOD   25   TIME STEP    9
 
 SOLVING FOR HEAD 
                                                   Max.-Head-Change                         Max.-Flux-Residual
  Residual-Control   Outer-Iter.   Inner-Iter.     Column Row Layer    Maximum-Head-Change  Column Row Layer    Maximum-Flux-Residual          L2-NORM 
          0                 1           2             4    6     1      -0.3854284755E-01       4    6    1        -0.2090435028E+01      0.4633777212E+01
          0                 2           2             4    6     1      -0.1064817802E-01       4    6    1        -0.5686593471E+00      0.9015094051E+00
          0                 3           2             4    7     1      -0.2075154975E-02       4    7    1        -0.1110213964E+00      0.1743309157E+00
          0                 4           2             4    7     1      -0.5751958825E-03       4    7    1        -0.3077216831E-01      0.4791086940E-01
          0                 5           2             4    7     1      -0.1594952338E-03       4    7    1        -0.8528370213E-02      0.1331531914E-01
          0                 6           1             4    7     1      -0.4424241057E-04       4    7    1        -0.2365315842E-02      0.3703846495E-02

    ------------------------------------------------
       NWT REQUIRED            6 OUTER ITERATIONS 
       AND A TOTAL OF         11 INNER ITERATIONS.
    ------------------------------------------------

 NO OUTPUT CONTROL FOR STRESS PERIOD   25   TIME STEP   10
 
 SOLVING FOR HEAD 
                                                   Max.-Head-Change                         Max.-Flux-Residual
  Residual-Control   Outer-Iter.   Inner-Iter.     Column Row Layer    Maximum-Head-Change  Column Row Layer    Maximum-Flux-Residual          L2-NORM 
          0                 1           2             4    6     1      -0.3560862807E-01       4    6    1        -0.1930466721E+01      0.4459147171E+01
          0                 2           2             4    6     1      -0.9847109491E-02       4    6    1        -0.5254499033E+00      0.8560140479E+00
          0                 3           2             4    6     1      -0.2220982375E-02       4    6    1        -0.1186202046E+00      0.2054223031E+00
          0                 4           2             4    7     1      -0.5684865952E-03       4    7    1        -0.3059217879E-01      0.4824031784E-01
          0                 5           1             4    7     1      -0.1575173079E-03       4    7    1        -0.8415751064E-02      0.1296103530E-01
          0                 6           1             4    7     1      -0.4366248610E-04       4    7    1        -0.2335783812E-02      0.3600839643E-02

    ------------------------------------------------
       NWT REQUIRED            6 OUTER ITERATIONS 
       AND A TOTAL OF         10 INNER ITERATIONS.
    ------------------------------------------------

 NO OUTPUT CONTROL FOR STRESS PERIOD   25   TIME STEP   11
 
 SOLVING FOR HEAD 
                                                   Max.-Head-Change                         Max.-Flux-Residual
  Residual-Control   Outer-Iter.   Inner-Iter.     Column Row Layer    Maximum-Head-Change  Column Row Layer    Maximum-Flux-Residual          L2-NORM 
          0                 1           2             4    6     1      -0.3207481555E-01       4    6    1        -0.1737838628E+01      0.4278620152E+01
          0                 2           2             4    6     1      -0.8884251138E-02       4    6    1        -0.4734080907E+00      0.8064475309E+00
          0                 3           2             4    6     1      -0.2462031050E-02       4    6    1        -0.1318549702E+00      0.2083469120E+00
          0                 4           2             4    6     1      -0.6826170614E-03       4    6    1        -0.3649817532E-01      0.5799610737E-01
          0                 5           2             4    6     1      -0.1893495404E-03       4    6    1        -0.1012211491E-01      0.1626988240E-01
          0                 6           1             4    6     1      -0.5254701812E-04       4    6    1        -0.2808076737E-02      0.4565195700E-02

    ------------------------------------------------
       NWT REQUIRED            6 OUTER ITERATIONS 
       AND A TOTAL OF         11 INNER ITERATIONS.
    ------------------------------------------------

 NO OUTPUT CONTROL FOR STRESS PERIOD   25   TIME STEP   12
 
 SOLVING FOR HEAD 
                                                   Max.-Head-Change                         Max.-Flux-Residual
  Residual-Control   Outer-Iter.   Inner-Iter.     Column Row Layer    Maximum-Head-Change  Column Row Layer    Maximum-Flux-Residual          L2-NORM 
          0                 1           2             3    7     1       0.2938556647E-01       4    6    1        -0.1571964477E+01      0.4117192065E+01
          0                 2           2             4    6     1      -0.8053683514E-02       4    6    1        -0.4285645500E+00      0.7626180520E+00
          0                 3           2             4    6     1      -0.2235267519E-02       4    6    1        -0.1195839939E+00      0.1958819035E+00
          0                 4           2             4    6     1      -0.6206576472E-03       4    6    1        -0.3314955392E-01      0.5452748106E-01
          0                 5           2             4    6     1      -0.1724072827E-03       4    6    1        -0.9206912632E-02      0.1530438273E-01
          0                 6           1             4    6     1      -0.4791085202E-04       4    6    1        -0.2557772836E-02      0.4296273269E-02

    ------------------------------------------------
       NWT REQUIRED            6 OUTER ITERATIONS 
       AND A TOTAL OF         11 INNER ITERATIONS.
    ------------------------------------------------

 NO OUTPUT CONTROL FOR STRESS PERIOD   25   TIME STEP   13
 
 SOLVING FOR HEAD 
                                                   Max.-Head-Change                         Max.-Flux-Residual
  Residual-Control   Outer-Iter.   Inner-Iter.     Column Row Layer    Maximum-Head-Change  Column Row Layer    Maximum-Flux-Residual          L2-NORM 
          0                 1           2             3    7     1       0.2856734852E-01       4    6    1        -0.1485778253E+01      0.3992277418E+01
          0                 2           2             4    6     1      -0.7617516641E-02       4    6    1        -0.4052053855E+00      0.7319718889E+00
          0                 3           2             4    6     1      -0.2115149574E-02       4    6    1        -0.1131221493E+00      0.1872993654E+00
          0                 4           2             4    6     1      -0.5875568277E-03       4    6    1        -0.3137179412E-01      0.5213044860E-01
          0                 5           2             4    6     1      -0.1632800790E-03       4    6    1        -0.8716871635E-02      0.1463366768E-01
          0                 6           1             4    6     1      -0.4539260723E-04       4    6    1        -0.2422627919E-02      0.4108548678E-02

    ------------------------------------------------
       NWT REQUIRED            6 OUTER ITERATIONS 
       AND A TOTAL OF         11 INNER ITERATIONS.
    ------------------------------------------------

 NO OUTPUT CONTROL FOR STRESS PERIOD   25   TIME STEP   14
 
 SOLVING FOR HEAD 
                                                   Max.-Head-Change                         Max.-Flux-Residual
  Residual-Control   Outer-Iter.   Inner-Iter.     Column Row Layer    Maximum-Head-Change  Column Row Layer    Maximum-Flux-Residual          L2-NORM 
          0                 1           2             3    7     1       0.2777385020E-01       4    6    1        -0.1404910117E+01      0.3874250809E+01
          0                 2           2             4    6     1      -0.7207758092E-02       4    6    1        -0.3832709640E+00      0.7028643581E+00
          0                 3           2             4    6     1      -0.2002229697E-02       4    6    1        -0.1070504903E+00      0.1791224832E+00
          0                 4           2             4    6     1      -0.5564195495E-03       4    6    1        -0.2970027294E-01      0.4984486767E-01
          0                 5           2             4    6     1      -0.1546889262E-03       4    6    1        -0.8255821519E-02      0.1399380124E-01
          0                 6           1             4    6     1      -0.4302081997E-04       4    6    1        -0.2295399222E-02      0.3929372221E-02

    ------------------------------------------------
       NWT REQUIRED            6 OUTER ITERATIONS 
       AND A TOTAL OF         11 INNER ITERATIONS.
    ------------------------------------------------

 NO OUTPUT CONTROL FOR STRESS PERIOD   25   TIME STEP   15
 
 SOLVING FOR HEAD 
                                                   Max.-Head-Change                         Max.-Flux-Residual
  Residual-Control   Outer-Iter.   Inner-Iter.     Column Row Layer    Maximum-Head-Change  Column Row Layer    Maximum-Flux-Residual          L2-NORM 
          0                 1           2             3    7     1       0.2700464107E-01       4    6    1        -0.1328983864E+01      0.3762621213E+01
          0                 2           2             4    6     1      -0.6822564353E-02       4    6    1        -0.3626612145E+00      0.6751935409E+00
          0                 3           2             4    6     1      -0.1896009393E-02       4    6    1        -0.1013418393E+00      0.1713244623E+00
          0                 4           2             4    6     1      -0.5271108929E-03       4    6    1        -0.2812764852E-01      0.4766349394E-01
          0                 5           2             4    6     1      -0.1465972764E-03       4    6    1        -0.7821774451E-02      0.1338281392E-01
          0                 6           1             4    6     1      -0.4078557932E-04       4    6    1        -0.2175548078E-02      0.3758207479E-02

    ------------------------------------------------
       NWT REQUIRED            6 OUTER ITERATIONS 
       AND A TOTAL OF         11 INNER ITERATIONS.
    ------------------------------------------------

 NO OUTPUT CONTROL FOR STRESS PERIOD   25   TIME STEP   16
 
 SOLVING FOR HEAD 
                                                   Max.-Head-Change                         Max.-Flux-Residual
  Residual-Control   Outer-Iter.   Inner-Iter.     Column Row Layer    Maximum-Head-Change  Column Row Layer    Maximum-Flux-Residual          L2-NORM 
          0                 1           2             3    7     1       0.2625924034E-01       4    6    1        -0.1257610284E+01      0.3656963849E+01
          0                 2           2             4    6     1      -0.6460040627E-02       4    6    1        -0.3432729712E+00      0.6488763312E+00
          0                 3           2             4    6     1      -0.1795978388E-02       4    6    1        -0.9596829335E-01      0.1638839163E+00
          0                 4           2             4    6     1      -0.4994933289E-03       4    6    1        -0.2664641397E-01      0.4558060361E-01
          0                 5           2             4    6     1      -0.1389680317E-03       4    6    1        -0.7412706441E-02      0.1279916003E-01
          0                 6           1             4    6     1      -0.3867687161E-04       4    6    1        -0.2062528454E-02      0.3594635892E-02

    ------------------------------------------------
       NWT REQUIRED            6 OUTER ITERATIONS 
       AND A TOTAL OF         11 INNER ITERATIONS.
    ------------------------------------------------

 NO OUTPUT CONTROL FOR STRESS PERIOD   25   TIME STEP   17
 
 SOLVING FOR HEAD 
                                                   Max.-Head-Change                         Max.-Flux-Residual
  Residual-Control   Outer-Iter.   Inner-Iter.     Column Row Layer    Maximum-Head-Change  Column Row Layer    Maximum-Flux-Residual          L2-NORM 
          0                 1           2             3    7     1       0.2553761705E-01       4    6    1        -0.1190493648E+01      0.3556889015E+01
          0                 2           2             4    6     1      -0.6118736739E-02       4    6    1        -0.3250276620E+00      0.6238285987E+00
          0                 3           2             4    6     1      -0.1701743909E-02       4    6    1        -0.9090846041E-01      0.1567782055E+00
          0                 4           2             4    6     1      -0.4734603713E-03       4    6    1        -0.2525078210E-01      0.4359001451E-01
          0                 5           2             4    7     1      -0.1321514093E-03       4    6    1        -0.7027047847E-02      0.1224114614E-01
          0                 6           1             4    7     1      -0.3722577686E-04       4    7    1        -0.1967912512E-02      0.3438192878E-02

    ------------------------------------------------
       NWT REQUIRED            6 OUTER ITERATIONS 
       AND A TOTAL OF         11 INNER ITERATIONS.
    ------------------------------------------------

 NO OUTPUT CONTROL FOR STRESS PERIOD   25   TIME STEP   18
 
 SOLVING FOR HEAD 
                                                   Max.-Head-Change                         Max.-Flux-Residual
  Residual-Control   Outer-Iter.   Inner-Iter.     Column Row Layer    Maximum-Head-Change  Column Row Layer    Maximum-Flux-Residual          L2-NORM 
          0                 1           2             3    7     1       0.2483872718E-01       4    6    1        -0.1127303699E+01      0.3462015230E+01
          0                 2           2             4    6     1      -0.5797029357E-02       4    6    1        -0.3078371436E+00      0.5999763328E+00
          0                 3           2             4    6     1      -0.1612866810E-02       4    6    1        -0.8613840947E-01      0.1499881888E+00
          0                 4           2             4    7     1      -0.4534552493E-03       4    7    1        -0.2397343241E-01      0.4168818166E-01
          0                 5           2             4    7     1      -0.1276871545E-03       4    7    1        -0.6751915303E-02      0.1171363227E-01
          0                 6           1             4    7     1      -0.3594980836E-04       4    7    1        -0.1901166212E-02      0.3288498260E-02

    ------------------------------------------------
       NWT REQUIRED            6 OUTER ITERATIONS 
       AND A TOTAL OF         11 INNER ITERATIONS.
    ------------------------------------------------

 NO OUTPUT CONTROL FOR STRESS PERIOD   25   TIME STEP   19
 
 SOLVING FOR HEAD 
                                                   Max.-Head-Change                         Max.-Flux-Residual
  Residual-Control   Outer-Iter.   Inner-Iter.     Column Row Layer    Maximum-Head-Change  Column Row Layer    Maximum-Flux-Residual          L2-NORM 
          0                 1           2             3    7     1       0.2416273529E-01       4    6    1        -0.1067796468E+01      0.3372020789E+01
          0                 2           2             4    7     1      -0.5528502302E-02       4    7    1        -0.2917274913E+00      0.5772521851E+00
          0                 3           2             4    7     1      -0.1556400746E-02       4    7    1        -0.8235873411E-01      0.1434957890E+00
          0                 4           2             4    7     1      -0.4380963683E-03       4    7    1        -0.2317056877E-01      0.3986529735E-01
          0                 5           2             4    7     1      -0.1232992594E-03       4    7    1        -0.6522308159E-02      0.1119646557E-01
          0                 6           1             4    7     1      -0.3469774547E-04       4    7    1        -0.1835591888E-02      0.3145170837E-02

    ------------------------------------------------
       NWT REQUIRED            6 OUTER ITERATIONS 
       AND A TOTAL OF         11 INNER ITERATIONS.
    ------------------------------------------------

 NO OUTPUT CONTROL FOR STRESS PERIOD   25   TIME STEP   20
 
 SOLVING FOR HEAD 
                                                   Max.-Head-Change                         Max.-Flux-Residual
  Residual-Control   Outer-Iter.   Inner-Iter.     Column Row Layer    Maximum-Head-Change  Column Row Layer    Maximum-Flux-Residual          L2-NORM 
          0                 1           2             3    7     1       0.2350855018E-01       4    6    1        -0.1011689754E+01      0.3286584594E+01
          0                 2           2             4    7     1      -0.5343689572E-02       4    7    1        -0.2820897170E+00      0.5556170099E+00
          0                 3           2             4    7     1      -0.1503556161E-02       4    7    1        -0.7959399823E-01      0.1372858791E+00
          0                 4           2             4    7     1      -0.4230059235E-03       4    7    1        -0.2238071484E-01      0.3812198893E-01
          0                 5           2             4    7     1      -0.1189950650E-03       4    7    1        -0.6296816145E-02      0.1070728475E-01
          0                 6           1             4    7     1      -0.3347138424E-04       4    7    1        -0.1771294935E-02      0.3007901951E-02

    ------------------------------------------------
       NWT REQUIRED            6 OUTER ITERATIONS 
       AND A TOTAL OF         11 INNER ITERATIONS.
    ------------------------------------------------

 NO OUTPUT CONTROL FOR STRESS PERIOD   25   TIME STEP   21
 
 SOLVING FOR HEAD 
                                                   Max.-Head-Change                         Max.-Flux-Residual
  Residual-Control   Outer-Iter.   Inner-Iter.     Column Row Layer    Maximum-Head-Change  Column Row Layer    Maximum-Flux-Residual          L2-NORM 
          0                 1           2             3    7     1       0.2287582089E-01       4    7    1        -0.9771544985E+00      0.3205413095E+01
          0                 2           2             4    7     1      -0.5161708020E-02       4    7    1        -0.2725858883E+00      0.5349436341E+00
          0                 3           2             4    7     1      -0.1451613170E-02       4    7    1        -0.7687297693E-01      0.1313397268E+00
          0                 4           2             4    7     1      -0.4081967764E-03       4    7    1        -0.2160468332E-01      0.3645191337E-01
          0                 5           1             4    7     1      -0.1147772866E-03       4    7    1        -0.6075617539E-02      0.1023852406E-01
          0                 6           1             4    7     1      -0.3227125016E-04       4    7    1        -0.1708312231E-02      0.2876330720E-02

    ------------------------------------------------
       NWT REQUIRED            6 OUTER ITERATIONS 
       AND A TOTAL OF         10 INNER ITERATIONS.
    ------------------------------------------------

 NO OUTPUT CONTROL FOR STRESS PERIOD   25   TIME STEP   22
 
 SOLVING FOR HEAD 
                                                   Max.-Head-Change                         Max.-Flux-Residual
  Residual-Control   Outer-Iter.   Inner-Iter.     Column Row Layer    Maximum-Head-Change  Column Row Layer    Maximum-Flux-Residual          L2-NORM 
          0                 1           2             3    7     1       0.2226379712E-01       4    7    1        -0.9441963414E+00      0.3128168205E+01
          0                 2           2             4    7     1      -0.4982915411E-02       4    7    1        -0.2632365428E+00      0.5152448926E+00
          0                 3           2             4    7     1      -0.1400661345E-02       4    7    1        -0.7420083504E-01      0.1256470941E+00
          0                 4           2             4    7     1      -0.3936912085E-03       4    7    1        -0.2084376510E-01      0.3485188061E-01
          0                 5           1             4    7     1      -0.1106514233E-03       4    7    1        -0.5859032815E-02      0.9789308881E-02
          0                 6           1             4    7     1      -0.3109868832E-04       4    7    1        -0.1646722723E-02      0.2750290707E-02

    ------------------------------------------------
       NWT REQUIRED            6 OUTER ITERATIONS 
       AND A TOTAL OF         10 INNER ITERATIONS.
    ------------------------------------------------

 NO OUTPUT CONTROL FOR STRESS PERIOD   25   TIME STEP   23
 
 SOLVING FOR HEAD 
                                                   Max.-Head-Change                         Max.-Flux-Residual
  Residual-Control   Outer-Iter.   Inner-Iter.     Column Row Layer    Maximum-Head-Change  Column Row Layer    Maximum-Flux-Residual          L2-NORM 
          0                 1           2             3    7     1       0.2167208148E-01       4    7    1        -0.9117792218E+00      0.3054727607E+01
          0                 2           2             4    7     1      -0.4807532605E-02       4    7    1        -0.2540549655E+00      0.4964559179E+00
          0                 3           2             4    7     1      -0.1350752002E-02       4    7    1        -0.7158070103E-01      0.1201939411E+00
          0                 4           2             4    7     1      -0.3795008175E-03       4    7    1        -0.2009868267E-01      0.3331814156E-01
          0                 5           1             4    7     1      -0.1066199917E-03       4    7    1        -0.5647223726E-02      0.9358643525E-02
          0                 6           1             4    7     1      -0.2995421045E-04       4    7    1        -0.1586561025E-02      0.2629409286E-02

    ------------------------------------------------
       NWT REQUIRED            6 OUTER ITERATIONS 
       AND A TOTAL OF         10 INNER ITERATIONS.
    ------------------------------------------------

 NO OUTPUT CONTROL FOR STRESS PERIOD   25   TIME STEP   24
 
 SOLVING FOR HEAD 
                                                   Max.-Head-Change                         Max.-Flux-Residual
  Residual-Control   Outer-Iter.   Inner-Iter.     Column Row Layer    Maximum-Head-Change  Column Row Layer    Maximum-Flux-Residual          L2-NORM 
          0                 1           2             3    7     1       0.2110030522E-01       4    7    1        -0.8799480524E+00      0.2984851338E+01
          0                 2           2             4    7     1      -0.4635734002E-02       4    7    1        -0.2450517963E+00      0.4785281743E+00
          0                 3           2             4    7     1      -0.1301924582E-02       4    7    1        -0.6901503022E-01      0.1149672252E+00
          0                 4           2             4    7     1      -0.3656341646E-03       4    7    1        -0.1936998627E-01      0.3184708179E-01
          0                 5           1             4    7     1      -0.1026847341E-03       4    7    1        -0.5440308017E-02      0.8945411701E-02
          0                 6           1             4    7     1      -0.2883813094E-04       4    7    1        -0.1527850497E-02      0.2513225255E-02

    ------------------------------------------------
       NWT REQUIRED            6 OUTER ITERATIONS 
       AND A TOTAL OF         10 INNER ITERATIONS.
    ------------------------------------------------

 NO OUTPUT CONTROL FOR STRESS PERIOD   25   TIME STEP   25
 
 SOLVING FOR HEAD 
                                                   Max.-Head-Change                         Max.-Flux-Residual
  Residual-Control   Outer-Iter.   Inner-Iter.     Column Row Layer    Maximum-Head-Change  Column Row Layer    Maximum-Flux-Residual          L2-NORM 
          0                 1           2             3    7     1       0.2054760696E-01       4    7    1        -0.8487387474E+00      0.2918334047E+01
          0                 2           2             4    7     1      -0.4467656387E-02       4    7    1        -0.2362354874E+00      0.4614201879E+00
          0                 3           2             4    7     1      -0.1254209410E-02       4    7    1        -0.6650573793E-01      0.1099558280E+00
          0                 4           2             4    7     1      -0.3520976449E-03       4    7    1        -0.1865809613E-01      0.3043564151E-01
          0                 5           1             4    7     1      -0.9884688866E-04       4    7    1        -0.5238372682E-02      0.8548885607E-02

    ------------------------------------------------
       NWT REQUIRED            5 OUTER ITERATIONS 
       AND A TOTAL OF          9 INNER ITERATIONS.
    ------------------------------------------------

 NO OUTPUT CONTROL FOR STRESS PERIOD   25   TIME STEP   26
 
 SOLVING FOR HEAD 
                                                   Max.-Head-Change                         Max.-Flux-Residual
  Residual-Control   Outer-Iter.   Inner-Iter.     Column Row Layer    Maximum-Head-Change  Column Row Layer    Maximum-Flux-Residual          L2-NORM 
          0                 1           2             3    7     1       0.2001390829E-01       4    7    1        -0.8182146946E+00      0.2855039846E+01
          0                 2           2             4    7     1      -0.4303589204E-02       4    7    1        -0.2276223882E+00      0.4451091884E+00
          0                 3           2             4    7     1      -0.1207680816E-02       4    7    1        -0.6405702959E-01      0.1051541210E+00
          0                 4           2             4    7     1      -0.3389102946E-03       4    7    1        -0.1796409152E-01      0.2908228148E-01
          0                 5           1             4    7     1      -0.9511131615E-04       4    7    1        -0.5041693906E-02      0.8168603642E-02

    ------------------------------------------------
       NWT REQUIRED            5 OUTER ITERATIONS 
       AND A TOTAL OF          9 INNER ITERATIONS.
    ------------------------------------------------

 NO OUTPUT CONTROL FOR STRESS PERIOD   25   TIME STEP   27
 
 SOLVING FOR HEAD 
                                                   Max.-Head-Change                         Max.-Flux-Residual
  Residual-Control   Outer-Iter.   Inner-Iter.     Column Row Layer    Maximum-Head-Change  Column Row Layer    Maximum-Flux-Residual          L2-NORM 
          0                 1           2             3    7     1       0.1949804657E-01       4    7    1        -0.7883608550E+00      0.2794725427E+01
          0                 2           2             4    7     1      -0.4143406680E-02       4    7    1        -0.2192068969E+00      0.4295396057E+00
          0                 3           2             4    7     1      -0.1162296408E-02       4    7    1        -0.6166692849E-01      0.1005464397E+00
          0                 4           2             4    7     1      -0.3260583471E-03       4    7    1        -0.1728731461E-01      0.2778262971E-01
          0                 5           1             4    7     1      -0.9147366012E-04       4    7    1        -0.4850059722E-02      0.7803356803E-02

    ------------------------------------------------
       NWT REQUIRED            5 OUTER ITERATIONS 
       AND A TOTAL OF          9 INNER ITERATIONS.
    ------------------------------------------------

 NO OUTPUT CONTROL FOR STRESS PERIOD   25   TIME STEP   28
 
 SOLVING FOR HEAD 
                                                   Max.-Head-Change                         Max.-Flux-Residual
  Residual-Control   Outer-Iter.   Inner-Iter.     Column Row Layer    Maximum-Head-Change  Column Row Layer    Maximum-Flux-Residual          L2-NORM 
          0                 1           2             3    7     1       0.1900015950E-01       4    7    1        -0.7592080248E+00      0.2737230861E+01
          0                 2           2             4    7     1      -0.3987230771E-02       4    7    1        -0.2109963618E+00      0.4147279358E+00
          0                 3           2             4    7     1      -0.1118084327E-02       4    7    1        -0.5933716051E-01      0.9612574551E-01
          0                 4           2             4    7     1      -0.3135480941E-03       4    7    1        -0.1662816063E-01      0.2653446111E-01
          0                 5           1             4    7     1      -0.8793526241E-04       4    7    1        -0.4663557541E-02      0.7452502255E-02

    ------------------------------------------------
       NWT REQUIRED            5 OUTER ITERATIONS 
       AND A TOTAL OF          9 INNER ITERATIONS.
    ------------------------------------------------

 NO OUTPUT CONTROL FOR STRESS PERIOD   25   TIME STEP   29
 
 SOLVING FOR HEAD 
                                                   Max.-Head-Change                         Max.-Flux-Residual
  Residual-Control   Outer-Iter.   Inner-Iter.     Column Row Layer    Maximum-Head-Change  Column Row Layer    Maximum-Flux-Residual          L2-NORM 
          0                 1           2             3    7     1       0.1851915203E-01       4    7    1        -0.7307662551E+00      0.2682233615E+01
          0                 2           2             4    7     1      -0.3835085236E-02       4    7    1        -0.2029927424E+00      0.4004925454E+00
          0                 3           2             4    7     1      -0.1075046638E-02       4    7    1        -0.5706800989E-01      0.9188110053E-01
          0                 4           2             4    7     1      -0.3013789040E-03       4    7    1        -0.1598664269E-01      0.2533561559E-01
          0                 5           1             4    7     1      -0.8449562604E-04       4    7    1        -0.4482173281E-02      0.7115469903E-02

    ------------------------------------------------
       NWT REQUIRED            5 OUTER ITERATIONS 
       AND A TOTAL OF          9 INNER ITERATIONS.
    ------------------------------------------------

 NO OUTPUT CONTROL FOR STRESS PERIOD   25   TIME STEP   30



 STREAM LISTING     PERIOD     25   STEP       30

 LAYER ROW COL. STREAM  RCH.  FLOW INTO     FLOW TO   FLOW OUT OF   OVRLND.     DIRECT     STREAM       STREAM     STREAM     STREAM   STREAMBED  STREAMBED
                SEG.NO.  NO.  STRM. RCH.    AQUIFER    STRM. RCH.    RUNOFF     PRECIP       ET          HEAD       DEPTH      WIDTH   CONDCTNC.   GRADIENT

   1    1    1     1     1    1.4942E+01  1.8668E-01   1.4756E+01  0.000E+00  0.000E+00  0.000E+00  1.09406E+03  1.009E+00  1.035E+01  4.656E-02  1.336E+00
   1    2    2     1     2    1.4756E+01  2.8774E-01   1.4468E+01  0.000E+00  0.000E+00  0.000E+00  1.08906E+03  1.004E+00  1.027E+01  7.186E-02  1.335E+00
   1    3    3     1     3    1.4468E+01  2.4407E-01   1.4224E+01  0.000E+00  0.000E+00  0.000E+00  1.08342E+03  9.991E-01  1.017E+01  6.103E-02  1.333E+00
   1    3    4     1     4    1.4224E+01  2.2366E-01   1.4000E+01  0.000E+00  0.000E+00  0.000E+00  1.07840E+03  9.944E-01  1.009E+01  5.599E-02  1.331E+00
   1    4    5     2     1    1.2000E+01  2.9419E-01   1.1706E+01  0.000E+00  0.000E+00  0.000E+00  1.07271E+03  7.717E-01  1.200E+01  7.800E-02  1.257E+00
   1    5    6     2     2    1.1706E+01  2.2569E-01   1.1480E+01  0.000E+00  0.000E+00  0.000E+00  1.06727E+03  7.615E-01  1.200E+01  6.000E-02  1.254E+00
   1    6    6     2     3    1.1480E+01  2.2515E-01   1.1255E+01  0.000E+00  0.000E+00  0.000E+00  1.06255E+03  7.526E-01  1.200E+01  6.000E-02  1.251E+00
   1    7    6     2     4    1.1255E+01  2.2462E-01   1.1031E+01  0.000E+00  0.000E+00  0.000E+00  1.05782E+03  7.436E-01  1.200E+01  6.000E-02  1.248E+00
   1    8    6     2     5    1.1031E+01  2.2408E-01   1.0807E+01  0.000E+00  0.000E+00  0.000E+00  1.05309E+03  7.346E-01  1.200E+01  6.000E-02  1.245E+00
   1    3    5     3     1    2.0000E+00  2.8252E-01   1.7175E+00  0.000E+00  0.000E+00  0.000E+00  1.07555E+03  1.909E+00  9.636E+00  7.227E-02  1.955E+00
   1    3    6     3     2    1.7175E+00  2.4905E-01   1.4684E+00  0.000E+00  0.000E+00  0.000E+00  1.07264E+03  1.727E+00  8.909E+00  6.682E-02  1.864E+00
   1    3    7     3     3    1.4684E+00  1.9718E-01   1.2712E+00  0.000E+00  0.000E+00  0.000E+00  1.06987E+03  1.555E+00  8.218E+00  5.547E-02  1.777E+00
   1    4    8     3     4    1.2712E+00  2.2567E-01   1.0456E+00  0.000E+00  0.000E+00  0.000E+00  1.06682E+03  1.364E+00  7.455E+00  6.709E-02  1.682E+00
   1    5    8     3     5    1.0456E+00  1.5790E-01   8.8768E-01  0.000E+00  0.000E+00  0.000E+00  1.06362E+03  1.164E+00  6.655E+00  4.991E-02  1.582E+00
   1    6    8     3     6    8.8768E-01  5.5980E-02   8.3170E-01  0.000E+00  0.000E+00  0.000E+00  1.06158E+03  1.036E+00  6.145E+00  1.844E-02  1.518E+00
   1    5   10     4     1    1.0000E+01  9.0919E-02   9.9091E+00  0.000E+00  0.000E+00  0.000E+00  1.07836E+03  6.368E-01  1.000E+01  2.500E-02  1.212E+00
   1    5    9     4     2    9.9091E+00  1.8158E-01   9.7275E+00  0.000E+00  0.000E+00  0.000E+00  1.07154E+03  6.315E-01  1.000E+01  5.000E-02  1.211E+00
   1    6    8     4     3    9.7275E+00  1.2689E-01   9.6006E+00  0.000E+00  0.000E+00  0.000E+00  1.06381E+03  6.256E-01  1.000E+01  3.500E-02  1.209E+00
   1    6    8     5     1    1.0432E+01  2.2686E-01   1.0205E+01  0.000E+00  0.000E+00  0.000E+00  1.05868E+03  6.790E-01  1.542E+01  6.166E-02  1.226E+00
   1    7    7     5     2    1.0205E+01  2.7894E-01   9.9265E+00  0.000E+00  0.000E+00  0.000E+00  1.05417E+03  6.732E-01  1.519E+01  7.594E-02  1.224E+00
   1    8    7     5     3    9.9265E+00  1.9221E-01   9.7343E+00  0.000E+00  0.000E+00  0.000E+00  1.04992E+03  6.676E-01  1.497E+01  5.241E-02  1.223E+00
   1    8    6     5     4    9.7343E+00  1.3577E-01   9.5985E+00  0.000E+00  0.000E+00  0.000E+00  1.04691E+03  6.637E-01  1.482E+01  3.706E-02  1.221E+00
   1    9    6     6     1    2.0405E+01  2.4462E-01   2.0161E+01  0.000E+00  0.000E+00  0.000E+00  1.04380E+03  1.077E+00  1.200E+01  6.000E-02  1.359E+00
   1   10    7     6     2    2.0161E+01  2.4416E-01   1.9916E+01  0.000E+00  0.000E+00  0.000E+00  1.03925E+03  1.069E+00  1.200E+01  6.000E-02  1.356E+00
   1   11    7     6     3    1.9916E+01  2.4369E-01   1.9673E+01  0.000E+00  0.000E+00  0.000E+00  1.03470E+03  1.061E+00  1.200E+01  6.000E-02  1.354E+00
   1   12    7     6     4    1.9673E+01  2.4322E-01   1.9429E+01  0.000E+00  0.000E+00  0.000E+00  1.03014E+03  1.054E+00  1.200E+01  6.000E-02  1.351E+00
   1   13    7     6     5    1.9429E+01  4.3675E-03   1.9425E+01  0.000E+00  0.000E+00  0.000E+00  1.02696E+03  1.050E+00  1.200E+01  2.400E-02  6.066E-02
   1   14    9     7     1    1.5000E+02  1.3545E+00   1.4865E+02  0.000E+00  0.000E+00  0.000E+00  1.03987E+03  2.288E+00  5.529E+01  5.593E-01  8.073E-01
   1   13    8     7     2    1.4865E+02  1.9164E+00   1.4673E+02  0.000E+00  0.000E+00  0.000E+00  1.03478E+03  2.279E+00  5.526E+01  6.148E-01  1.039E+00
   1   13    7     7     3    1.4673E+02  1.6262E+00   1.4510E+02  0.000E+00  0.000E+00  0.000E+00  1.02969E+03  2.270E+00  5.521E+01  5.584E-01  9.707E-01
   1   13    6     8     1    1.6453E+02  1.0513E+00   1.6348E+02  0.000E+00  0.000E+00  0.000E+00  1.02479E+03  2.913E+00  4.223E+01  4.304E-01  8.142E-01
   1   13    5     8     2    1.6348E+02  3.0429E-01   1.6317E+02  0.000E+00  0.000E+00  0.000E+00  1.01853E+03  2.908E+00  4.217E+01  4.297E-01  2.360E-01
   1   13    4     8     3    1.6317E+02 -1.9919E+00   1.6516E+02  0.000E+00  0.000E+00  0.000E+00  1.01229E+03  2.914E+00  4.225E+01  4.305E+00 -1.542E-01
   1   13    3     8     4    1.6516E+02 -3.4344E+00   1.6860E+02  0.000E+00  0.000E+00  0.000E+00  1.00606E+03  2.932E+00  4.251E+01  4.332E+00 -2.643E-01
   1   13    2     8     5    1.6860E+02 -2.5318E+00   1.7113E+02  0.000E+00  0.000E+00  0.000E+00  9.99826E+02  2.951E+00  4.279E+01  4.361E+00 -1.935E-01
   1   13    1     8     6    1.7113E+02 -1.9729E+00   1.7310E+02  0.000E+00  0.000E+00  0.000E+00  9.94841E+02  2.966E+00  4.301E+01  2.629E+00 -2.501E-01
   1    8    6     9     1    0.0000E+00  0.0000E+00   0.0000E+00  0.000E+00  0.000E+00  0.000E+00  1.07875E+03  0.000E+00  4.000E+00  0.000E+00  1.000E+00
   1    8    5     9     2    0.0000E+00  0.0000E+00   0.0000E+00  0.000E+00  0.000E+00  0.000E+00  1.07825E+03  0.000E+00  4.000E+00  0.000E+00  1.000E+00





UNSATURATED ZONE PACKAGE VOLUMETRIC BUDGET FOR  TIME STEP    30 STRESS PERIOD   25
  ------------------------------------------------------------------------------



     CUMULATIVE VOLUMES      L**3       RATES FOR THIS TIME STEP      L**3/T
     ------------------                 ------------------------

           IN:                                      IN:
           ---                                      ---
        INFILTRATION =  6020101625.0429          INFILTRATION =           0.8475

          OUT:                                     OUT:
          ----                                     ----
              UZF ET =   862934563.6883                UZF ET =           0.7500
        UZF RECHARGE =  4737586578.0721          UZF RECHARGE =           4.9322

            IN - OUT =   419580483.2825              IN - OUT =          -4.8347

          STORAGE:                                 STORAGE:
          --------                                 --------
      STORAGE CHANGE =   420419329.5431        STORAGE CHANGE =          -4.8347

 PERCENT DISCREPANCY IS DIFFERENCE BETWEEN IN-OUT MINUS CHANGE IN STORAGE
 DIVIDED BY THE AVERAGE OF IN AND OUT TIMES 100

 PERCENT DISCREPANCY =          -0.00     PERCENT DISCREPANCY =           0.00






1
  VOLUMETRIC BUDGET FOR AGRICULTURAL FIELDS AT  END OF TIME STEP   30, STRESS PERIOD  25
  ------------------------------------------------------------------------------

     CUMULATIVE VOLUMES      L**3       RATES FOR THIS TIME STEP      L**3/T
     ------------------                 ------------------------

           IN:                                      IN:
           ---                                      ---
               AG WELLS  =  5381544960.0000                 AG WELLS  =           0.0000
      DIVERSION SEGMENTS =   585000640.0000        DIVERSION SEGMENTS =           0.0000
       IRRIGATION PONDS  =           0.0000         IRRIGATION PONDS  =           0.0000
           GW IRRIGATION =           0.0000             GW IRRIGATION =           0.0000
           SW IRRIGATION =           0.0000             SW IRRIGATION =           0.0000
        SYSTEM LOSSES GW =           0.0000          SYSTEM LOSSES GW =           0.0000
        SYSTEM LOSSES SW =           0.0000          SYSTEM LOSSES SW =           0.0000

                TOTAL IN =  5966545408.0000                  TOTAL IN =           0.0000

          OUT:                                     OUT:
          ----                                     ----
               AG WELLS  =           0.0000                 AG WELLS  =           0.0000
      DIVERSION SEGMENTS =           0.0000        DIVERSION SEGMENTS =           0.0000
       IRRIGATION PONDS  =           0.0000         IRRIGATION PONDS  =           0.0000
           GW IRRIGATION =  5381544960.0000             GW IRRIGATION =           0.0000
           SW IRRIGATION =   585012352.0000             SW IRRIGATION =           0.0000
        SYSTEM LOSSES GW =           0.0000          SYSTEM LOSSES GW =           0.0000
        SYSTEM LOSSES SW =           0.0000          SYSTEM LOSSES SW =           0.0000

               TOTAL OUT =  5966557184.0000                 TOTAL OUT =           0.0000

                IN - OUT =      -11776.0000                  IN - OUT =           0.0000

     PERCENT DISCREPANCY =          -0.00         PERCENT DISCREPANCY =           0.00



1
  VOLUMETRIC BUDGET FOR ENTIRE MODEL AT END OF TIME STEP   30, STRESS PERIOD  25
  ------------------------------------------------------------------------------

     CUMULATIVE VOLUMES      L**3       RATES FOR THIS TIME STEP      L**3/T
     ------------------                 ------------------------

           IN:                                      IN:
           ---                                      ---
             STORAGE     =  4788088832.0000               STORAGE     =           6.4294
       CONSTANT HEAD     =           0.0000         CONSTANT HEAD     =           0.0000
     HEAD DEP BOUNDS     =    18081808.0000       HEAD DEP BOUNDS     =           0.2870
      STREAM LEAKAGE     =   766706496.0000        STREAM LEAKAGE     =          11.7701
        UZF RECHARGE     =  4737588736.0000          UZF RECHARGE     =           4.9322
               GW ET     =           0.0000                 GW ET     =           0.0000
     SURFACE LEAKAGE     =           0.0000       SURFACE LEAKAGE     =           0.0000
           AG WELLS      =           0.0000             AG WELLS      =           0.0000

                TOTAL IN = 10310465536.0000                  TOTAL IN =          23.4187

          OUT:                                     OUT:
          ----                                     ----
             STORAGE     =  4250497280.0000               STORAGE     =          13.2037
       CONSTANT HEAD     =           0.0000         CONSTANT HEAD     =           0.0000
     HEAD DEP BOUNDS     =    18361244.0000       HEAD DEP BOUNDS     =           0.2885
      STREAM LEAKAGE     =   658650880.0000        STREAM LEAKAGE     =           9.9311
        UZF RECHARGE     =           0.0000          UZF RECHARGE     =           0.0000
               GW ET     =     1320838.1250                 GW ET     =           0.0000
     SURFACE LEAKAGE     =           0.0000       SURFACE LEAKAGE     =           0.0000
           AG WELLS      =  5381544960.0000             AG WELLS      =           0.0000

               TOTAL OUT = 10310375424.0000                 TOTAL OUT =          23.4232

                IN - OUT =       90112.0000                  IN - OUT =      -4.5128E-03

     PERCENT DISCREPANCY =           0.00         PERCENT DISCREPANCY =          -0.02






         TIME SUMMARY AT END OF TIME STEP   30 IN STRESS PERIOD   25
                    SECONDS     MINUTES      HOURS       DAYS        YEARS
                    -----------------------------------------------------------
   TIME STEP LENGTH  87667.      1461.1      24.352      1.0147     2.77799E-03
 STRESS PERIOD TIME 2.63000E+06  43833.      730.56      30.440     8.33397E-02
         TOTAL TIME 6.32067E+07 1.05345E+06  17557.      731.56      2.0029    
1
1
                            STRESS PERIOD NO.   26, LENGTH =   2630000.    
                            -----------------------------------------------

                              NUMBER OF TIME STEPS =    30

                               MULTIPLIER FOR DELT =     1.000

                            INITIAL TIME STEP SIZE =   87666.66    

 REUSING NON-PARAMETER GHB CELLS FROM LAST STRESS PERIOD

      2 GHB CELLS

 REUSING STREAM SEGMENT DATA FROM LAST STRESS PERIOD



            AREAL INFILTRATION RATE
 READING ON UNIT   19 WITH FORMAT: (FREE)              

            1           2           3           4           5           6           7           8           9          10
 ........................................................................................................................
   1   1.0000E-10  2.0000E-10   0.000       0.000       0.000       0.000       0.000       0.000       0.000       0.000    
   2   2.0000E-10  1.0000E-10  2.0000E-10   0.000       0.000      8.0000E-10  8.0000E-10  5.0000E-10   0.000       0.000    
   3    0.000      5.0000E-10  1.0000E-10  1.0000E-10  8.0000E-10  8.0000E-10  5.0000E-10  5.0000E-10   0.000       0.000    
   4   8.0000E-10  5.0000E-10  1.0000E-10  1.0000E-10  1.0000E-10  1.0000E-10  1.0000E-10  1.0000E-10  2.0000E-10   0.000    
   5   8.0000E-10  5.0000E-10  1.0000E-10  1.0000E-10  1.0000E-10  1.0000E-10  1.0000E-10  1.0000E-10  1.0000E-10  1.0000E-10
   6   8.0000E-10  5.0000E-10  5.0000E-10  2.0000E-10  2.0000E-10  1.0000E-10  1.0000E-10  1.0000E-10  1.0000E-10  5.0000E-10
   7   8.0000E-10  5.0000E-10  5.0000E-10  2.0000E-10  2.0000E-10  1.0000E-10  1.0000E-10  2.0000E-10  2.0000E-10   0.000    
   8    0.000      5.0000E-10  5.0000E-10  2.0000E-10  2.0000E-10  1.0000E-10  1.0000E-10  2.0000E-10  5.0000E-10   0.000    
   9    0.000      5.0000E-10  5.0000E-10  2.0000E-10  2.0000E-10  1.0000E-10  1.0000E-10  2.0000E-10  5.0000E-10   0.000    
  10    0.000      5.0000E-10  5.0000E-10  2.0000E-10  2.0000E-10  1.0000E-10  1.0000E-10  2.0000E-10  5.0000E-10  8.0000E-10
  11    0.000      1.0000E-10  1.0000E-10  1.0000E-10  1.0000E-10  1.0000E-10  1.0000E-10  2.0000E-10  5.0000E-10   0.000    
  12   1.0000E-10  1.0000E-10  1.0000E-10  1.0000E-10  1.0000E-10  1.0000E-10  1.0000E-10  1.0000E-10  2.0000E-10   0.000    
  13   1.0000E-10  1.0000E-10  2.0000E-10  2.0000E-10  2.0000E-10  2.0000E-10  2.0000E-10  1.0000E-10  1.0000E-10   0.000    
  14    0.000      2.0000E-10  5.0000E-10  5.0000E-10  5.0000E-10  5.0000E-10  5.0000E-10  2.0000E-10  1.0000E-10   0.000    
  15    0.000       0.000      8.0000E-10  8.0000E-10  8.0000E-10  8.0000E-10   0.000       0.000       0.000       0.000    

                  ET RATE =  5.000000E-10

 USING ET EXTINCTION DEPTH FROM PREVIOUS STRESS PERIOD. CURRENT PERIOD IS:      26

 USING EXTINCTION WATER CONTENT FROM PREVIOUS STRESS PERIOD. CURRENT PERIOD IS:      26

 USING AIR ENTRY PRESSURE FROM PREVIOUS STRESS PERIOD. CURRENT PERIOD IS:      26

 USING ROOT PRESSURE HEAD FROM PREVIOUS STRESS PERIOD. CURRENT PERIOD IS:      26

 USING ROOT ACTIVITY FROM PREVIOUS STRESS PERIOD. CURRENT PERIOD IS:      26

 PROCESSING AG STRESS PERIOD DATA

 READING AG STRESS PERIOD DATA

 READING IRRIGATION SEGMENT

 READING IRRIGATION WELL

 READING SUPPLEMENTAL WELL

 NO IRRPOND OR REUSING IRRPOND DATA FROM LAST STRESS PERIOD

 END PROCESSING AG STRESS PERIOD DATA OPTIONS
 
 SOLVING FOR HEAD 
                                                   Max.-Head-Change                         Max.-Flux-Residual
  Residual-Control   Outer-Iter.   Inner-Iter.     Column Row Layer    Maximum-Head-Change  Column Row Layer    Maximum-Flux-Residual          L2-NORM 
          0                 1           2             3    7     1       0.1805445037E-01       4    7    1        -0.7030270379E+00      0.2628553257E+01
          0                 2           2             4    7     1      -0.3686897385E-02       4    7    1        -0.1951928130E+00      0.3868726161E+00
          0                 3           2             4    7     1      -0.1033158766E-02       4    7    1        -0.5485833305E-01      0.8780509720E-01
          0                 4           2             4    7     1      -0.2895427878E-03       4    7    1        -0.1536237926E-01      0.2418366539E-01
          0                 5           1             4    7     1      -0.8115222340E-04       4    7    1        -0.4305783928E-02      0.6791574106E-02

    ------------------------------------------------
       NWT REQUIRED            5 OUTER ITERATIONS 
       AND A TOTAL OF          9 INNER ITERATIONS.
    ------------------------------------------------

 NO OUTPUT CONTROL FOR STRESS PERIOD   26   TIME STEP    1
 
 SOLVING FOR HEAD 
                                                   Max.-Head-Change                         Max.-Flux-Residual
  Residual-Control   Outer-Iter.   Inner-Iter.     Column Row Layer    Maximum-Head-Change  Column Row Layer    Maximum-Flux-Residual          L2-NORM 
          0                 1           2             3    7     1       0.1760596763E-01       4    7    1        -0.6760233885E+00      0.2583343195E+01
          0                 2           2             4    7     1      -0.3542787401E-02       4    7    1        -0.1876041461E+00      0.3742746945E+00
          0                 3           2             4    7     1      -0.9924461066E-03       4    7    1        -0.5270979772E-01      0.8389603232E-01
          0                 4           2             4    7     1      -0.2780446372E-03       4    7    1        -0.1475571597E-01      0.2307515924E-01
          0                 5           1             4    7     1      -0.7790582858E-04       4    7    1        -0.4134453658E-02      0.6479829775E-02

    ------------------------------------------------
       NWT REQUIRED            5 OUTER ITERATIONS 
       AND A TOTAL OF          9 INNER ITERATIONS.
    ------------------------------------------------

 NO OUTPUT CONTROL FOR STRESS PERIOD   26   TIME STEP    2
 
 SOLVING FOR HEAD 
                                                   Max.-Head-Change                         Max.-Flux-Residual
  Residual-Control   Outer-Iter.   Inner-Iter.     Column Row Layer    Maximum-Head-Change  Column Row Layer    Maximum-Flux-Residual          L2-NORM 
          0                 1           2             3    7     1       0.1717313838E-01       4    7    1        -0.6497214556E+00      0.2535956809E+01
          0                 2           2             4    7     1      -0.3402582612E-02       4    7    1        -0.1802174708E+00      0.3619767771E+00
          0                 3           2             4    7     1      -0.9528611766E-03       4    7    1        -0.5061984737E-01      0.8013494312E-01
          0                 4           2             4    7     1      -0.2668714080E-03       4    7    1        -0.1416595031E-01      0.2200934989E-01
          0                 5           1             4    7     1      -0.7475286048E-04       4    7    1        -0.3967989487E-02      0.6180055296E-02

    ------------------------------------------------
       NWT REQUIRED            5 OUTER ITERATIONS 
       AND A TOTAL OF          9 INNER ITERATIONS.
    ------------------------------------------------

 NO OUTPUT CONTROL FOR STRESS PERIOD   26   TIME STEP    3
 
 SOLVING FOR HEAD 
                                                   Max.-Head-Change                         Max.-Flux-Residual
  Residual-Control   Outer-Iter.   Inner-Iter.     Column Row Layer    Maximum-Head-Change  Column Row Layer    Maximum-Flux-Residual          L2-NORM 
          0                 1           2             3    7     1       0.1675491627E-01       4    7    1        -0.6241486359E+00      0.2490276907E+01
          0                 2           2             4    7     1      -0.3266391183E-02       4    7    1        -0.1730393787E+00      0.3502196736E+00
          0                 3           2             4    7     1      -0.9144286295E-03       4    7    1        -0.4859000613E-01      0.7652095759E-01
          0                 4           2             4    7     1      -0.2560285148E-03       4    7    1        -0.1359342722E-01      0.2098427794E-01
          0                 5           1             4    7     1      -0.7169444162E-04       4    7    1        -0.3806466196E-02      0.5891696412E-02

    ------------------------------------------------
       NWT REQUIRED            5 OUTER ITERATIONS 
       AND A TOTAL OF          9 INNER ITERATIONS.
    ------------------------------------------------

 NO OUTPUT CONTROL FOR STRESS PERIOD   26   TIME STEP    4
 
 SOLVING FOR HEAD 
                                                   Max.-Head-Change                         Max.-Flux-Residual
  Residual-Control   Outer-Iter.   Inner-Iter.     Column Row Layer    Maximum-Head-Change  Column Row Layer    Maximum-Flux-Residual          L2-NORM 
          0                 1           2             3    7     1       0.1635149967E-01       4    7    1        -0.5992974770E+00      0.2446648855E+01
          0                 2           2             4    7     1      -0.3134156652E-02       4    7    1        -0.1660672341E+00      0.3390138924E+00
          0                 3           2             4    7     1      -0.8771301446E-03       4    7    1        -0.4661939824E-01      0.7304969212E-01
          0                 4           2             4    7     1      -0.2455101656E-03       4    7    1        -0.1303786462E-01      0.1999850756E-01
          0                 5           1             4    7     1      -0.6872877643E-04       4    7    1        -0.3649795114E-02      0.5614353447E-02

    ------------------------------------------------
       NWT REQUIRED            5 OUTER ITERATIONS 
       AND A TOTAL OF          9 INNER ITERATIONS.
    ------------------------------------------------

 NO OUTPUT CONTROL FOR STRESS PERIOD   26   TIME STEP    5
 
 SOLVING FOR HEAD 
                                                   Max.-Head-Change                         Max.-Flux-Residual
  Residual-Control   Outer-Iter.   Inner-Iter.     Column Row Layer    Maximum-Head-Change  Column Row Layer    Maximum-Flux-Residual          L2-NORM 
          0                 1           2             3    7     1       0.1596211267E-01       4    7    1        -0.5751439178E+00      0.2404961699E+01
          0                 2           2             4    7     1      -0.3005744045E-02       4    7    1        -0.1592940936E+00      0.3283352628E+00
          0                 3           2             4    7     1      -0.8409265023E-03       4    7    1        -0.4470599519E-01      0.6971453828E-01
          0                 4           2             4    7     1      -0.2353049905E-03       4    7    1        -0.1249867394E-01      0.1905015801E-01
          0                 5           1             4    7     1      -0.6585257472E-04       4    7    1        -0.3497805691E-02      0.5347499233E-02

    ------------------------------------------------
       NWT REQUIRED            5 OUTER ITERATIONS 
       AND A TOTAL OF          9 INNER ITERATIONS.
    ------------------------------------------------

 NO OUTPUT CONTROL FOR STRESS PERIOD   26   TIME STEP    6
 
 SOLVING FOR HEAD 
                                                   Max.-Head-Change                         Max.-Flux-Residual
  Residual-Control   Outer-Iter.   Inner-Iter.     Column Row Layer    Maximum-Head-Change  Column Row Layer    Maximum-Flux-Residual          L2-NORM 
          0                 1           2             3    7     1       0.1558624021E-01       7    8    1         0.5518062074E+00      0.2365128397E+01
          0                 2           2             4    7     1      -0.2881163470E-02       4    7    1        -0.1527209406E+00      0.3181660176E+00
          0                 3           2             4    7     1      -0.8058175570E-03       4    7    1        -0.4284990296E-01      0.6651091926E-01
          0                 4           2             4    7     1      -0.2254121614E-03       4    7    1        -0.1197584159E-01      0.1813791084E-01
          0                 5           1             4    7     1      -0.6306539603E-04       4    7    1        -0.3350482592E-02      0.5090764389E-02

    ------------------------------------------------
       NWT REQUIRED            5 OUTER ITERATIONS 
       AND A TOTAL OF          9 INNER ITERATIONS.
    ------------------------------------------------

 NO OUTPUT CONTROL FOR STRESS PERIOD   26   TIME STEP    7
 
 SOLVING FOR HEAD 
                                                   Max.-Head-Change                         Max.-Flux-Residual
  Residual-Control   Outer-Iter.   Inner-Iter.     Column Row Layer    Maximum-Head-Change  Column Row Layer    Maximum-Flux-Residual          L2-NORM 
          0                 1           2             3    7     1       0.1522338120E-01       7    8    1         0.5467266565E+00      0.2327027949E+01
          0                 2           2             4    7     1      -0.2760329070E-02       4    7    1        -0.1463437695E+00      0.3084797472E+00
          0                 3           2             4    7     1      -0.7717755739E-03       4    7    1        -0.4104979020E-01      0.6343158082E-01
          0                 4           2             4    7     1      -0.2158229375E-03       4    7    1        -0.1146894102E-01      0.1725968346E-01
          0                 5           1             4    7     1      -0.6036453691E-04       4    7    1        -0.3207692128E-02      0.4843562875E-02

    ------------------------------------------------
       NWT REQUIRED            5 OUTER ITERATIONS 
       AND A TOTAL OF          9 INNER ITERATIONS.
    ------------------------------------------------

 NO OUTPUT CONTROL FOR STRESS PERIOD   26   TIME STEP    8
 
 SOLVING FOR HEAD 
                                                   Max.-Head-Change                         Max.-Flux-Residual
  Residual-Control   Outer-Iter.   Inner-Iter.     Column Row Layer    Maximum-Head-Change  Column Row Layer    Maximum-Flux-Residual          L2-NORM 
          0                 1           2             3    7     1       0.1487329486E-01       7    8    1         0.5416660500E+00      0.2290578806E+01
          0                 2           2             4    7     1      -0.2643164226E-02       4    7    1        -0.1401585765E+00      0.2992621715E+00
          0                 3           2             4    7     1      -0.7387786818E-03       4    7    1        -0.3930451145E-01      0.6047343386E-01
          0                 4           2             4    7     1      -0.2065310801E-03       4    7    1        -0.1097764548E-01      0.1641458424E-01
          0                 5           1             4    7     1      -0.5774821733E-04       4    7    1        -0.3069341062E-02      0.4605647263E-02

    ------------------------------------------------
       NWT REQUIRED            5 OUTER ITERATIONS 
       AND A TOTAL OF          9 INNER ITERATIONS.
    ------------------------------------------------

 NO OUTPUT CONTROL FOR STRESS PERIOD   26   TIME STEP    9
 
 SOLVING FOR HEAD 
                                                   Max.-Head-Change                         Max.-Flux-Residual
  Residual-Control   Outer-Iter.   Inner-Iter.     Column Row Layer    Maximum-Head-Change  Column Row Layer    Maximum-Flux-Residual          L2-NORM 
          0                 1           2             3    7     1       0.1453550370E-01       7    8    1         0.5366338786E+00      0.2255723178E+01
          0                 2           2             4    7     1      -0.2529586837E-02       4    7    1        -0.1341612276E+00      0.2904976007E+00
          0                 3           2             4    7     1      -0.7068024281E-03       4    7    1        -0.3761282392E-01      0.5763216969E-01
          0                 4           2             4    7     1      -0.1975293526E-03       4    7    1        -0.1050158578E-01      0.1560135635E-01
          0                 5           1             4    7     1      -0.5521430858E-04       4    7    1        -0.2935320321E-02      0.4376681121E-02

    ------------------------------------------------
       NWT REQUIRED            5 OUTER ITERATIONS 
       AND A TOTAL OF          9 INNER ITERATIONS.
    ------------------------------------------------

 NO OUTPUT CONTROL FOR STRESS PERIOD   26   TIME STEP   10
 
 SOLVING FOR HEAD 
                                                   Max.-Head-Change                         Max.-Flux-Residual
  Residual-Control   Outer-Iter.   Inner-Iter.     Column Row Layer    Maximum-Head-Change  Column Row Layer    Maximum-Flux-Residual          L2-NORM 
          0                 1           2             3    8     1       0.1422515769E-01       7    8    1         0.5316335770E+00      0.2222361607E+01
          0                 2           2             4    7     1      -0.2419578639E-02       4    7    1        -0.1283512278E+00      0.2821661251E+00
          0                 3           2             4    7     1      -0.6758385159E-03       4    7    1        -0.3597440898E-01      0.5490284701E-01
          0                 4           2             4    7     1      -0.1888145884E-03       4    7    1        -0.1004062637E-01      0.1481851802E-01
          0                 5           1             4    7     1      -0.5276169818E-04       4    7    1        -0.2805579531E-02      0.4156195299E-02

    ------------------------------------------------
       NWT REQUIRED            5 OUTER ITERATIONS 
       AND A TOTAL OF          9 INNER ITERATIONS.
    ------------------------------------------------

 NO OUTPUT CONTROL FOR STRESS PERIOD   26   TIME STEP   11
 
 SOLVING FOR HEAD 
                                                   Max.-Head-Change                         Max.-Flux-Residual
  Residual-Control   Outer-Iter.   Inner-Iter.     Column Row Layer    Maximum-Head-Change  Column Row Layer    Maximum-Flux-Residual          L2-NORM 
          0                 1           2             3    8     1       0.1399158895E-01       7    8    1         0.5266624483E+00      0.2190420435E+01
          0                 2           2             4    7     1      -0.2312972233E-02       4    7    1        -0.1227197303E+00      0.2742502063E+00
          0                 3           2             4    7     1      -0.6458398487E-03       4    7    1        -0.3438677393E-01      0.5228093435E-01
          0                 4           2             4    7     1      -0.1803735330E-03       4    7    1        -0.9594066145E-02      0.1406476084E-01
          0                 5           1             4    7     1      -0.5038665747E-04       4    7    1        -0.2679921442E-02      0.3943872967E-02

    ------------------------------------------------
       NWT REQUIRED            5 OUTER ITERATIONS 
       AND A TOTAL OF          9 INNER ITERATIONS.
    ------------------------------------------------

 NO OUTPUT CONTROL FOR STRESS PERIOD   26   TIME STEP   12
 
 SOLVING FOR HEAD 
                                                   Max.-Head-Change                         Max.-Flux-Residual
  Residual-Control   Outer-Iter.   Inner-Iter.     Column Row Layer    Maximum-Head-Change  Column Row Layer    Maximum-Flux-Residual          L2-NORM 
          0                 1           2             3    8     1       0.1376405268E-01       7    8    1         0.5217237550E+00      0.2159834426E+01
          0                 2           2             4    7     1      -0.2209754561E-02       4    7    1        -0.1172662472E+00      0.2667386479E+00
          0                 3           2             4    7     1      -0.6168014501E-03       4    7    1        -0.3284970451E-01      0.4976468611E-01
          0                 4           2             4    7     1      -0.1722044487E-03       4    7    1        -0.9161826098E-02      0.1333953700E-01
          0                 5           1             4    7     1      -0.4808860869E-04       4    7    1        -0.2558318841E-02      0.3739541496E-02

    ------------------------------------------------
       NWT REQUIRED            5 OUTER ITERATIONS 
       AND A TOTAL OF          9 INNER ITERATIONS.
    ------------------------------------------------

 NO OUTPUT CONTROL FOR STRESS PERIOD   26   TIME STEP   13
 
 SOLVING FOR HEAD 
                                                   Max.-Head-Change                         Max.-Flux-Residual
  Residual-Control   Outer-Iter.   Inner-Iter.     Column Row Layer    Maximum-Head-Change  Column Row Layer    Maximum-Flux-Residual          L2-NORM 
          0                 1           2             3    8     1       0.1354257368E-01       7    8    1         0.5168315315E+00      0.2130550286E+01
          0                 2           2             4    7     1      -0.2109828461E-02       4    7    1        -0.1119858377E+00      0.2596150728E+00
          0                 3           2             4    7     1      -0.5886946343E-03       4    7    1        -0.3136173439E-01      0.4734958360E-01
          0                 4           2             4    7     1      -0.1642989068E-03       4    7    1        -0.8743474052E-02      0.1264147822E-01
          0                 5           1             4    7     1      -0.4586508550E-04       4    7    1        -0.2440644919E-02      0.3542816188E-02

    ------------------------------------------------
       NWT REQUIRED            5 OUTER ITERATIONS 
       AND A TOTAL OF          9 INNER ITERATIONS.
    ------------------------------------------------

 NO OUTPUT CONTROL FOR STRESS PERIOD   26   TIME STEP   14
 
 SOLVING FOR HEAD 
                                                   Max.-Head-Change                         Max.-Flux-Residual
  Residual-Control   Outer-Iter.   Inner-Iter.     Column Row Layer    Maximum-Head-Change  Column Row Layer    Maximum-Flux-Residual          L2-NORM 
          0                 1           2             3    8     1       0.1332675285E-01       7    8    1         0.5119711510E+00      0.2102482911E+01
          0                 2           2             4    7     1      -0.2013099197E-02       4    7    1        -0.1068736039E+00      0.2528632778E+00
          0                 3           2             4    7     1      -0.5614920723E-03       4    7    1        -0.2992144240E-01      0.4503242984E-01
          0                 4           2             4    7     1      -0.1566490387E-03       4    7    1        -0.8338600617E-02      0.1196962190E-01
          0                 5           1             4    7     1      -0.4371382639E-04       4    7    1        -0.2326781812E-02      0.3353423818E-02

    ------------------------------------------------
       NWT REQUIRED            5 OUTER ITERATIONS 
       AND A TOTAL OF          9 INNER ITERATIONS.
    ------------------------------------------------

 NO OUTPUT CONTROL FOR STRESS PERIOD   26   TIME STEP   15
 
 SOLVING FOR HEAD 
                                                   Max.-Head-Change                         Max.-Flux-Residual
  Residual-Control   Outer-Iter.   Inner-Iter.     Column Row Layer    Maximum-Head-Change  Column Row Layer    Maximum-Flux-Residual          L2-NORM 
          0                 1           2             3    8     1       0.1311663045E-01       7    8    1         0.5071619390E+00      0.2075583768E+01
          0                 2           2             4    7     1      -0.1919469603E-02       4    7    1        -0.1019245475E+00      0.2464698688E+00
          0                 3           2             4    7     1      -0.5351654329E-03       4    7    1        -0.2852736775E-01      0.4281019039E-01
          0                 4           1             4    7     1      -0.1492466124E-03       4    7    1        -0.7946780224E-02      0.1132299883E-01
          0                 5           1             4    7     1      -0.4163244681E-04       4    7    1        -0.2216606006E-02      0.3171088089E-02

    ------------------------------------------------
       NWT REQUIRED            5 OUTER ITERATIONS 
       AND A TOTAL OF          8 INNER ITERATIONS.
    ------------------------------------------------

 NO OUTPUT CONTROL FOR STRESS PERIOD   26   TIME STEP   16
 
 SOLVING FOR HEAD 
                                                   Max.-Head-Change                         Max.-Flux-Residual
  Residual-Control   Outer-Iter.   Inner-Iter.     Column Row Layer    Maximum-Head-Change  Column Row Layer    Maximum-Flux-Residual          L2-NORM 
          0                 1           2             3    8     1       0.1291224188E-01       7    8    1         0.5023944885E+00      0.2049805069E+01
          0                 2           2             4    7     1      -0.1828845621E-02       4    7    1        -0.9713378648E-01      0.2404215267E+00
          0                 3           2             4    7     1      -0.5096877652E-03       4    7    1        -0.2717810145E-01      0.4067996084E-01
          0                 4           1             4    7     1      -0.1420839194E-03       4    7    1        -0.7567609906E-02      0.1070069416E-01
          0                 5           1             4    7     1      -0.3961874503E-04       4    7    1        -0.2110002243E-02      0.2995555850E-02

    ------------------------------------------------
       NWT REQUIRED            5 OUTER ITERATIONS 
       AND A TOTAL OF          8 INNER ITERATIONS.
    ------------------------------------------------

 NO OUTPUT CONTROL FOR STRESS PERIOD   26   TIME STEP   17
 
 SOLVING FOR HEAD 
                                                   Max.-Head-Change                         Max.-Flux-Residual
  Residual-Control   Outer-Iter.   Inner-Iter.     Column Row Layer    Maximum-Head-Change  Column Row Layer    Maximum-Flux-Residual          L2-NORM 
          0                 1           2             3    8     1       0.1271299026E-01       7    8    1         0.4976765151E+00      0.2025069799E+01
          0                 2           2             4    7     1      -0.1741134099E-02       4    7    1        -0.9249646754E-01      0.2347034501E+00
          0                 3           2             4    7     1      -0.4850323548E-03       4    7    1        -0.2587224937E-01      0.3863938407E-01
          0                 4           1             4    7     1      -0.1351533063E-03       4    7    1        -0.7200690020E-02      0.1010194522E-01
          0                 5           1             4    7     1      -0.3767053107E-04       4    7    1        -0.2006856080E-02      0.2826595795E-02

    ------------------------------------------------
       NWT REQUIRED            5 OUTER ITERATIONS 
       AND A TOTAL OF          8 INNER ITERATIONS.
    ------------------------------------------------

 NO OUTPUT CONTROL FOR STRESS PERIOD   26   TIME STEP   18
 
 SOLVING FOR HEAD 
                                                   Max.-Head-Change                         Max.-Flux-Residual
  Residual-Control   Outer-Iter.   Inner-Iter.     Column Row Layer    Maximum-Head-Change  Column Row Layer    Maximum-Flux-Residual          L2-NORM 
          0                 1           2             3    8     1       0.1251892993E-01       7    8    1         0.4930038176E+00      0.2001352482E+01
          0                 2           2             4    7     1      -0.1656319934E-02       4    7    1        -0.8801190149E-01      0.2293102040E+00
          0                 3           2             4    7     1      -0.4611941607E-03       4    7    1        -0.2460957579E-01      0.3668757571E-01
          0                 4           1             4    7     1      -0.1284531249E-03       4    7    1        -0.6845942430E-02      0.9526504379E-02
          0                 5           1             4    7     1      -0.3578729770E-04       4    7    1        -0.1907142073E-02      0.2664368916E-02

    ------------------------------------------------
       NWT REQUIRED            5 OUTER ITERATIONS 
       AND A TOTAL OF          8 INNER ITERATIONS.
    ------------------------------------------------

 NO OUTPUT CONTROL FOR STRESS PERIOD   26   TIME STEP   19
 
 SOLVING FOR HEAD 
                                                   Max.-Head-Change                         Max.-Flux-Residual
  Residual-Control   Outer-Iter.   Inner-Iter.     Column Row Layer    Maximum-Head-Change  Column Row Layer    Maximum-Flux-Residual          L2-NORM 
          0                 1           2             3    8     1       0.1232990265E-01       7    8    1         0.4883838194E+00      0.1978592449E+01
          0                 2           2             4    7     1      -0.1574304817E-02       4    7    1        -0.8367505630E-01      0.2242176367E+00
          0                 3           2             4    7     1      -0.4381446362E-03       4    7    1        -0.2338860076E-01      0.3482172960E-01
          0                 4           1             4    7     1      -0.1219751586E-03       4    7    1        -0.6502939074E-02      0.8973105914E-02
          0                 5           1             4    7     1      -0.3396662987E-04       4    7    1        -0.1810737266E-02      0.2507901751E-02

    ------------------------------------------------
       NWT REQUIRED            5 OUTER ITERATIONS 
       AND A TOTAL OF          8 INNER ITERATIONS.
    ------------------------------------------------

 NO OUTPUT CONTROL FOR STRESS PERIOD   26   TIME STEP   20
 
 SOLVING FOR HEAD 
                                                   Max.-Head-Change                         Max.-Flux-Residual
  Residual-Control   Outer-Iter.   Inner-Iter.     Column Row Layer    Maximum-Head-Change  Column Row Layer    Maximum-Flux-Residual          L2-NORM 
          0                 1           2             3    8     1       0.1214596812E-01       7    8    1         0.4838176012E+00      0.1956755186E+01
          0                 2           2             4    7     1      -0.1494922396E-02       4    7    1        -0.7947702632E-01      0.2194224517E+00
          0                 3           2             4    7     1      -0.4158375497E-03       4    7    1        -0.2220685841E-01      0.3303957578E-01
          0                 4           1             4    7     1      -0.1157065352E-03       4    7    1        -0.6170993692E-02      0.8441350429E-02
          0                 5           1             4    7     1      -0.3220499900E-04       4    7    1        -0.1717450539E-02      0.2357566620E-02

    ------------------------------------------------
       NWT REQUIRED            5 OUTER ITERATIONS 
       AND A TOTAL OF          8 INNER ITERATIONS.
    ------------------------------------------------

 NO OUTPUT CONTROL FOR STRESS PERIOD   26   TIME STEP   21
 
 SOLVING FOR HEAD 
                                                   Max.-Head-Change                         Max.-Flux-Residual
  Residual-Control   Outer-Iter.   Inner-Iter.     Column Row Layer    Maximum-Head-Change  Column Row Layer    Maximum-Flux-Residual          L2-NORM 
          0                 1           2             3    8     1       0.1196654664E-01       7    8    1         0.4793008109E+00      0.1935780574E+01
          0                 2           2             4    7     1      -0.1418164428E-02       4    7    1        -0.7541746984E-01      0.2149106590E+00
          0                 3           2             4    7     1      -0.3942700625E-03       4    7    1        -0.2106421700E-01      0.3134098696E-01
          0                 4           1             4    7     1      -0.1096462856E-03       4    7    1        -0.5850062126E-02      0.7930935419E-02
          0                 5           1             4    7     1      -0.3050207094E-04       4    7    1        -0.1627266761E-02      0.2213233868E-02

    ------------------------------------------------
       NWT REQUIRED            5 OUTER ITERATIONS 
       AND A TOTAL OF          8 INNER ITERATIONS.
    ------------------------------------------------

 NO OUTPUT CONTROL FOR STRESS PERIOD   26   TIME STEP   22
 
 SOLVING FOR HEAD 
                                                   Max.-Head-Change                         Max.-Flux-Residual
  Residual-Control   Outer-Iter.   Inner-Iter.     Column Row Layer    Maximum-Head-Change  Column Row Layer    Maximum-Flux-Residual          L2-NORM 
          0                 1           2             3    8     1       0.1179213555E-01       7    8    1         0.4748402333E+00      0.1915651594E+01
          0                 2           2             4    7     1      -0.1343936491E-02       4    7    1        -0.7149158124E-01      0.2106708059E+00
          0                 3           2             4    7     1      -0.3734143588E-03       4    7    1        -0.1995925197E-01      0.2972378016E-01
          0                 4           1             4    7     1      -0.1037862854E-03       4    7    1        -0.5539725566E-02      0.7441102342E-02
          0                 5           1             4    7     1      -0.2885547589E-04       4    7    1        -0.1540063878E-02      0.2074618158E-02

    ------------------------------------------------
       NWT REQUIRED            5 OUTER ITERATIONS 
       AND A TOTAL OF          8 INNER ITERATIONS.
    ------------------------------------------------

 NO OUTPUT CONTROL FOR STRESS PERIOD   26   TIME STEP   23
 
 SOLVING FOR HEAD 
                                                   Max.-Head-Change                         Max.-Flux-Residual
  Residual-Control   Outer-Iter.   Inner-Iter.     Column Row Layer    Maximum-Head-Change  Column Row Layer    Maximum-Flux-Residual          L2-NORM 
          0                 1           2             3    8     1       0.1162194918E-01       7    8    1         0.4704366536E+00      0.1896303788E+01
          0                 2           2             4    7     1      -0.1272083012E-02       4    7    1        -0.6769091151E-01      0.2066891632E+00
          0                 3           2             4    7     1      -0.3532282194E-03       4    7    1        -0.1888966957E-01      0.2818687789E-01
          0                 4           1             4    7     1      -0.9811505049E-04       4    7    1        -0.5239361472E-02      0.6971427589E-02

    ------------------------------------------------
       NWT REQUIRED            4 OUTER ITERATIONS 
       AND A TOTAL OF          7 INNER ITERATIONS.
    ------------------------------------------------

 NO OUTPUT CONTROL FOR STRESS PERIOD   26   TIME STEP   24
 
 SOLVING FOR HEAD 
                                                   Max.-Head-Change                         Max.-Flux-Residual
  Residual-Control   Outer-Iter.   Inner-Iter.     Column Row Layer    Maximum-Head-Change  Column Row Layer    Maximum-Flux-Residual          L2-NORM 
          0                 1           2             3    8     1       0.1145638848E-01       7    8    1         0.4660907222E+00      0.1877736661E+01
          0                 2           2             4    7     1      -0.1202904921E-02       4    7    1        -0.6403195041E-01      0.2029649978E+00
          0                 3           2             4    7     1      -0.3337923286E-03       4    7    1        -0.1785989245E-01      0.2673446184E-01
          0                 4           1             4    7     1      -0.9265423252E-04       4    7    1        -0.4950155636E-02      0.6523103689E-02

    ------------------------------------------------
       NWT REQUIRED            4 OUTER ITERATIONS 
       AND A TOTAL OF          7 INNER ITERATIONS.
    ------------------------------------------------

 NO OUTPUT CONTROL FOR STRESS PERIOD   26   TIME STEP   25
 
 SOLVING FOR HEAD 
                                                   Max.-Head-Change                         Max.-Flux-Residual
  Residual-Control   Outer-Iter.   Inner-Iter.     Column Row Layer    Maximum-Head-Change  Column Row Layer    Maximum-Flux-Residual          L2-NORM 
          0                 1           2             3    8     1       0.1129519623E-01       7    8    1         0.4618031677E+00      0.1859898288E+01
          0                 2           2             4    7     1      -0.1135986369E-02       4    7    1        -0.6049224849E-01      0.1994792507E+00
          0                 3           2             4    7     1      -0.3149929081E-03       4    7    1        -0.1686377547E-01      0.2536199747E-01
          0                 4           1             4    7     1      -0.8737266763E-04       4    7    1        -0.4670426707E-02      0.6094671215E-02

    ------------------------------------------------
       NWT REQUIRED            4 OUTER ITERATIONS 
       AND A TOTAL OF          7 INNER ITERATIONS.
    ------------------------------------------------

 NO OUTPUT CONTROL FOR STRESS PERIOD   26   TIME STEP   26
 
 SOLVING FOR HEAD 
                                                   Max.-Head-Change                         Max.-Flux-Residual
  Residual-Control   Outer-Iter.   Inner-Iter.     Column Row Layer    Maximum-Head-Change  Column Row Layer    Maximum-Flux-Residual          L2-NORM 
          0                 1           2             3    8     1       0.1113803066E-01       7    8    1         0.4575687254E+00      0.1842745673E+01
          0                 2           2             3    8     1      -0.1087764248E-02       4    7    1        -0.5706752083E-01      0.1962186830E+00
          0                 3           2             4    7     1      -0.2968042625E-03       4    7    1        -0.1590001970E-01      0.2406811072E-01
          0                 4           1             4    7     1      -0.8226271643E-04       4    7    1        -0.4399786114E-02      0.5685638246E-02

    ------------------------------------------------
       NWT REQUIRED            4 OUTER ITERATIONS 
       AND A TOTAL OF          7 INNER ITERATIONS.
    ------------------------------------------------

 NO OUTPUT CONTROL FOR STRESS PERIOD   26   TIME STEP   27
 
 SOLVING FOR HEAD 
                                                   Max.-Head-Change                         Max.-Flux-Residual
  Residual-Control   Outer-Iter.   Inner-Iter.     Column Row Layer    Maximum-Head-Change  Column Row Layer    Maximum-Flux-Residual          L2-NORM 
          0                 1           2             3    8     1       0.1098477035E-01       7    8    1         0.4533936834E+00      0.1826245946E+01
          0                 2           2             3    8     1      -0.1072423146E-02       4    7    1        -0.5375788839E-01      0.1931753657E+00
          0                 3           2             4    7     1      -0.2792279831E-03       4    7    1        -0.1496868763E-01      0.2285495856E-01
          0                 4           1             4    7     1      -0.7732497094E-04       4    7    1        -0.4138259681E-02      0.5296744005E-02

    ------------------------------------------------
       NWT REQUIRED            4 OUTER ITERATIONS 
       AND A TOTAL OF          7 INNER ITERATIONS.
    ------------------------------------------------

 NO OUTPUT CONTROL FOR STRESS PERIOD   26   TIME STEP   28
 
 SOLVING FOR HEAD 
                                                   Max.-Head-Change                         Max.-Flux-Residual
  Residual-Control   Outer-Iter.   Inner-Iter.     Column Row Layer    Maximum-Head-Change  Column Row Layer    Maximum-Flux-Residual          L2-NORM 
          0                 1           2             3    8     1       0.1083571533E-01       7    8    1         0.4492782713E+00      0.1810372805E+01
          0                 2           2             3    8     1      -0.1057504609E-02       4    7    1        -0.5055523188E-01      0.1903376937E+00
          0                 3           2             4    7     1      -0.2622214023E-03       4    7    1        -0.1406751005E-01      0.2172160317E-01
          0                 4           1             4    7     1      -0.7254750136E-04       4    7    1        -0.3885213423E-02      0.4927739255E-02

    ------------------------------------------------
       NWT REQUIRED            4 OUTER ITERATIONS 
       AND A TOTAL OF          7 INNER ITERATIONS.
    ------------------------------------------------

 NO OUTPUT CONTROL FOR STRESS PERIOD   26   TIME STEP   29
 
 SOLVING FOR HEAD 
                                                   Max.-Head-Change                         Max.-Flux-Residual
  Residual-Control   Outer-Iter.   Inner-Iter.     Column Row Layer    Maximum-Head-Change  Column Row Layer    Maximum-Flux-Residual          L2-NORM 
          0                 1           2             3    8     1       0.1069031922E-01       7    8    1         0.4452170681E+00      0.1795097378E+01
          0                 2           2             3    8     1      -0.1042954274E-02       4    7    1        -0.4745573927E-01      0.1876956004E+00
          0                 3           2             4    7     1      -0.2457633781E-03       4    7    1        -0.1319538686E-01      0.2066853686E-01
          0                 4           1             4    7     1      -0.6792421823E-04       4    7    1        -0.3640330689E-02      0.4578963698E-02

    ------------------------------------------------
       NWT REQUIRED            4 OUTER ITERATIONS 
       AND A TOTAL OF          7 INNER ITERATIONS.
    ------------------------------------------------

 NO OUTPUT CONTROL FOR STRESS PERIOD   26   TIME STEP   30



 STREAM LISTING     PERIOD     26   STEP       30

 LAYER ROW COL. STREAM  RCH.  FLOW INTO     FLOW TO   FLOW OUT OF   OVRLND.     DIRECT     STREAM       STREAM     STREAM     STREAM   STREAMBED  STREAMBED
                SEG.NO.  NO.  STRM. RCH.    AQUIFER    STRM. RCH.    RUNOFF     PRECIP       ET          HEAD       DEPTH      WIDTH   CONDCTNC.   GRADIENT

   1    1    1     1     1    1.6500E+01  1.9759E-01   1.6303E+01  0.000E+00  0.000E+00  0.000E+00  1.09409E+03  1.039E+00  1.087E+01  4.893E-02  1.346E+00
   1    2    2     1     2    1.6303E+01  3.0466E-01   1.5998E+01  0.000E+00  0.000E+00  0.000E+00  1.08909E+03  1.034E+00  1.079E+01  7.552E-02  1.345E+00
   1    3    3     1     3    1.5998E+01  2.5853E-01   1.5739E+01  0.000E+00  0.000E+00  0.000E+00  1.08345E+03  1.029E+00  1.070E+01  6.417E-02  1.343E+00
   1    3    4     1     4    1.5739E+01  2.3700E-01   1.5502E+01  0.000E+00  0.000E+00  0.000E+00  1.07843E+03  1.024E+00  1.061E+01  5.890E-02  1.341E+00
   1    4    5     2     1    1.3502E+01  2.9865E-01   1.3204E+01  0.000E+00  0.000E+00  0.000E+00  1.07276E+03  8.289E-01  1.200E+01  7.800E-02  1.276E+00
   1    5    6     2     2    1.3204E+01  2.2914E-01   1.2975E+01  0.000E+00  0.000E+00  0.000E+00  1.06733E+03  8.190E-01  1.200E+01  6.000E-02  1.273E+00
   1    6    6     2     3    1.2975E+01  2.2862E-01   1.2746E+01  0.000E+00  0.000E+00  0.000E+00  1.06260E+03  8.104E-01  1.200E+01  6.000E-02  1.270E+00
   1    7    6     2     4    1.2746E+01  2.2810E-01   1.2518E+01  0.000E+00  0.000E+00  0.000E+00  1.05788E+03  8.017E-01  1.200E+01  6.000E-02  1.267E+00
   1    8    6     2     5    1.2518E+01  2.2758E-01   1.2290E+01  0.000E+00  0.000E+00  0.000E+00  1.05315E+03  7.930E-01  1.200E+01  6.000E-02  1.264E+00
   1    3    5     3     1    2.0000E+00  2.8252E-01   1.7175E+00  0.000E+00  0.000E+00  0.000E+00  1.07555E+03  1.909E+00  9.636E+00  7.227E-02  1.955E+00
   1    3    6     3     2    1.7175E+00  2.4905E-01   1.4684E+00  0.000E+00  0.000E+00  0.000E+00  1.07264E+03  1.727E+00  8.909E+00  6.682E-02  1.864E+00
   1    3    7     3     3    1.4684E+00  1.9718E-01   1.2712E+00  0.000E+00  0.000E+00  0.000E+00  1.06987E+03  1.555E+00  8.218E+00  5.547E-02  1.777E+00
   1    4    8     3     4    1.2712E+00  2.2567E-01   1.0456E+00  0.000E+00  0.000E+00  0.000E+00  1.06682E+03  1.364E+00  7.455E+00  6.709E-02  1.682E+00
   1    5    8     3     5    1.0456E+00  1.5790E-01   8.8768E-01  0.000E+00  0.000E+00  0.000E+00  1.06362E+03  1.164E+00  6.655E+00  4.991E-02  1.582E+00
   1    6    8     3     6    8.8768E-01  5.5980E-02   8.3170E-01  0.000E+00  0.000E+00  0.000E+00  1.06158E+03  1.036E+00  6.145E+00  1.844E-02  1.518E+00
   1    5   10     4     1    1.0000E+01  9.0919E-02   9.9091E+00  0.000E+00  0.000E+00  0.000E+00  1.07836E+03  6.368E-01  1.000E+01  2.500E-02  1.212E+00
   1    5    9     4     2    9.9091E+00  1.8158E-01   9.7275E+00  0.000E+00  0.000E+00  0.000E+00  1.07154E+03  6.315E-01  1.000E+01  5.000E-02  1.211E+00
   1    6    8     4     3    9.7275E+00  1.2689E-01   9.6006E+00  0.000E+00  0.000E+00  0.000E+00  1.06381E+03  6.256E-01  1.000E+01  3.500E-02  1.209E+00
   1    6    8     5     1    1.0432E+01  2.2686E-01   1.0205E+01  0.000E+00  0.000E+00  0.000E+00  1.05868E+03  6.790E-01  1.542E+01  6.166E-02  1.226E+00
   1    7    7     5     2    1.0205E+01  2.7894E-01   9.9265E+00  0.000E+00  0.000E+00  0.000E+00  1.05417E+03  6.732E-01  1.519E+01  7.594E-02  1.224E+00
   1    8    7     5     3    9.9265E+00  1.9221E-01   9.7343E+00  0.000E+00  0.000E+00  0.000E+00  1.04992E+03  6.676E-01  1.497E+01  5.241E-02  1.223E+00
   1    8    6     5     4    9.7343E+00  1.3577E-01   9.5985E+00  0.000E+00  0.000E+00  0.000E+00  1.04691E+03  6.637E-01  1.482E+01  3.706E-02  1.221E+00
   1    9    6     6     1    2.1889E+01  2.4742E-01   2.1641E+01  0.000E+00  0.000E+00  0.000E+00  1.04385E+03  1.124E+00  1.200E+01  6.000E-02  1.375E+00
   1   10    7     6     2    2.1641E+01  2.4696E-01   2.1395E+01  0.000E+00  0.000E+00  0.000E+00  1.03930E+03  1.116E+00  1.200E+01  6.000E-02  1.372E+00
   1   11    7     6     3    2.1395E+01  2.4650E-01   2.1148E+01  0.000E+00  0.000E+00  0.000E+00  1.03474E+03  1.108E+00  1.200E+01  6.000E-02  1.369E+00
   1   12    7     6     4    2.1148E+01  2.4603E-01   2.0902E+01  0.000E+00  0.000E+00  0.000E+00  1.03019E+03  1.101E+00  1.200E+01  6.000E-02  1.367E+00
   1   13    7     6     5    2.0902E+01  5.9070E-03   2.0896E+01  0.000E+00  0.000E+00  0.000E+00  1.02701E+03  1.097E+00  1.200E+01  2.400E-02  8.204E-02
   1   14    9     7     1    1.5000E+02  1.3562E+00   1.4864E+02  0.000E+00  0.000E+00  0.000E+00  1.03987E+03  2.288E+00  5.529E+01  5.593E-01  8.083E-01
   1   13    8     7     2    1.4864E+02  1.9228E+00   1.4672E+02  0.000E+00  0.000E+00  0.000E+00  1.03478E+03  2.279E+00  5.526E+01  6.148E-01  1.043E+00
   1   13    7     7     3    1.4672E+02  1.6357E+00   1.4509E+02  0.000E+00  0.000E+00  0.000E+00  1.02969E+03  2.269E+00  5.521E+01  5.584E-01  9.764E-01
   1   13    6     8     1    1.6598E+02  1.0645E+00   1.6492E+02  0.000E+00  0.000E+00  0.000E+00  1.02480E+03  2.922E+00  4.237E+01  4.318E-01  8.217E-01
   1   13    5     8     2    1.6492E+02  3.1073E-01   1.6461E+02  0.000E+00  0.000E+00  0.000E+00  1.01854E+03  2.918E+00  4.231E+01  4.311E-01  2.402E-01
   1   13    4     8     3    1.6461E+02 -1.9827E+00   1.6659E+02  0.000E+00  0.000E+00  0.000E+00  1.01230E+03  2.923E+00  4.239E+01  4.319E+00 -1.530E-01
   1   13    3     8     4    1.6659E+02 -3.4202E+00   1.7001E+02  0.000E+00  0.000E+00  0.000E+00  1.00607E+03  2.941E+00  4.265E+01  4.346E+00 -2.623E-01
   1   13    2     8     5    1.7001E+02 -2.5200E+00   1.7253E+02  0.000E+00  0.000E+00  0.000E+00  9.99835E+02  2.960E+00  4.293E+01  4.374E+00 -1.920E-01
   1   13    1     8     6    1.7253E+02 -1.9644E+00   1.7449E+02  0.000E+00  0.000E+00  0.000E+00  9.94850E+02  2.975E+00  4.314E+01  2.637E+00 -2.483E-01
   1    8    6     9     1    0.0000E+00  0.0000E+00   0.0000E+00  0.000E+00  0.000E+00  0.000E+00  1.07875E+03  0.000E+00  4.000E+00  0.000E+00  1.000E+00
   1    8    5     9     2    0.0000E+00  0.0000E+00   0.0000E+00  0.000E+00  0.000E+00  0.000E+00  1.07825E+03  0.000E+00  4.000E+00  0.000E+00  1.000E+00





UNSATURATED ZONE PACKAGE VOLUMETRIC BUDGET FOR  TIME STEP    30 STRESS PERIOD   26
  ------------------------------------------------------------------------------



     CUMULATIVE VOLUMES      L**3       RATES FOR THIS TIME STEP      L**3/T
     ------------------                 ------------------------

           IN:                                      IN:
           ---                                      ---
        INFILTRATION =  6022330549.9156          INFILTRATION =           0.8475

          OUT:                                     OUT:
          ----                                     ----
              UZF ET =   864907063.5422                UZF ET =           0.7500
        UZF RECHARGE =  4752428449.1932          UZF RECHARGE =           6.1061

            IN - OUT =   404995037.1802              IN - OUT =          -6.0086

          STORAGE:                                 STORAGE:
          --------                                 --------
      STORAGE CHANGE =   405833883.4490        STORAGE CHANGE =          -6.0086

 PERCENT DISCREPANCY IS DIFFERENCE BETWEEN IN-OUT MINUS CHANGE IN STORAGE
 DIVIDED BY THE AVERAGE OF IN AND OUT TIMES 100

 PERCENT DISCREPANCY =          -0.00     PERCENT DISCREPANCY =           0.00






1
  VOLUMETRIC BUDGET FOR AGRICULTURAL FIELDS AT  END OF TIME STEP   30, STRESS PERIOD  26
  ------------------------------------------------------------------------------

     CUMULATIVE VOLUMES      L**3       RATES FOR THIS TIME STEP      L**3/T
     ------------------                 ------------------------

           IN:                                      IN:
           ---                                      ---
               AG WELLS  =  5381544960.0000                 AG WELLS  =           0.0000
      DIVERSION SEGMENTS =   585000640.0000        DIVERSION SEGMENTS =           0.0000
       IRRIGATION PONDS  =           0.0000         IRRIGATION PONDS  =           0.0000
           GW IRRIGATION =           0.0000             GW IRRIGATION =           0.0000
           SW IRRIGATION =           0.0000             SW IRRIGATION =           0.0000
        SYSTEM LOSSES GW =           0.0000          SYSTEM LOSSES GW =           0.0000
        SYSTEM LOSSES SW =           0.0000          SYSTEM LOSSES SW =           0.0000

                TOTAL IN =  5966545408.0000                  TOTAL IN =           0.0000

          OUT:                                     OUT:
          ----                                     ----
               AG WELLS  =           0.0000                 AG WELLS  =           0.0000
      DIVERSION SEGMENTS =           0.0000        DIVERSION SEGMENTS =           0.0000
       IRRIGATION PONDS  =           0.0000         IRRIGATION PONDS  =           0.0000
           GW IRRIGATION =  5381544960.0000             GW IRRIGATION =           0.0000
           SW IRRIGATION =   585012352.0000             SW IRRIGATION =           0.0000
        SYSTEM LOSSES GW =           0.0000          SYSTEM LOSSES GW =           0.0000
        SYSTEM LOSSES SW =           0.0000          SYSTEM LOSSES SW =           0.0000

               TOTAL OUT =  5966557184.0000                 TOTAL OUT =           0.0000

                IN - OUT =      -11776.0000                  IN - OUT =           0.0000

     PERCENT DISCREPANCY =          -0.00         PERCENT DISCREPANCY =           0.00



1
  VOLUMETRIC BUDGET FOR ENTIRE MODEL AT END OF TIME STEP   30, STRESS PERIOD  26
  ------------------------------------------------------------------------------

     CUMULATIVE VOLUMES      L**3       RATES FOR THIS TIME STEP      L**3/T
     ------------------                 ------------------------

           IN:                                      IN:
           ---                                      ---
             STORAGE     =  4798704128.0000               STORAGE     =           2.5405
       CONSTANT HEAD     =           0.0000         CONSTANT HEAD     =           0.0000
     HEAD DEP BOUNDS     =    18836858.0000       HEAD DEP BOUNDS     =           0.2871
      STREAM LEAKAGE     =   797945984.0000        STREAM LEAKAGE     =          11.8940
        UZF RECHARGE     =  4752432128.0000          UZF RECHARGE     =           6.1061
               GW ET     =           0.0000                 GW ET     =           0.0000
     SURFACE LEAKAGE     =           0.0000       SURFACE LEAKAGE     =           0.0000
           AG WELLS      =           0.0000             AG WELLS      =           0.0000

                TOTAL IN = 10367919104.0000                  TOTAL IN =          20.8278

          OUT:                                     OUT:
          ----                                     ----
             STORAGE     =  4281244416.0000               STORAGE     =          10.6539
       CONSTANT HEAD     =           0.0000         CONSTANT HEAD     =           0.0000
     HEAD DEP BOUNDS     =    19120116.0000       HEAD DEP BOUNDS     =           0.2886
      STREAM LEAKAGE     =   684602432.0000        STREAM LEAKAGE     =           9.8873
        UZF RECHARGE     =           0.0000          UZF RECHARGE     =           0.0000
               GW ET     =     1320838.1250                 GW ET     =           0.0000
     SURFACE LEAKAGE     =           0.0000       SURFACE LEAKAGE     =           0.0000
           AG WELLS      =  5381544960.0000             AG WELLS      =           0.0000

               TOTAL OUT = 10367832064.0000                 TOTAL OUT =          20.8298

                IN - OUT =       87040.0000                  IN - OUT =      -2.0275E-03

     PERCENT DISCREPANCY =           0.00         PERCENT DISCREPANCY =          -0.01






         TIME SUMMARY AT END OF TIME STEP   30 IN STRESS PERIOD   26
                    SECONDS     MINUTES      HOURS       DAYS        YEARS
                    -----------------------------------------------------------
   TIME STEP LENGTH  87667.      1461.1      24.352      1.0147     2.77799E-03
 STRESS PERIOD TIME 2.63000E+06  43833.      730.56      30.440     8.33397E-02
         TOTAL TIME 6.58368E+07 1.09728E+06  18288.      762.00      2.0862    
1
1
                            STRESS PERIOD NO.   27, LENGTH =   2630000.    
                            -----------------------------------------------

                              NUMBER OF TIME STEPS =    30

                               MULTIPLIER FOR DELT =     1.000

                            INITIAL TIME STEP SIZE =   87666.66    

 REUSING NON-PARAMETER GHB CELLS FROM LAST STRESS PERIOD

      2 GHB CELLS

 REUSING STREAM SEGMENT DATA FROM LAST STRESS PERIOD



            AREAL INFILTRATION RATE
 READING ON UNIT   19 WITH FORMAT: (FREE)              

            1           2           3           4           5           6           7           8           9          10
 ........................................................................................................................
   1   1.0000E-10  2.0000E-10   0.000       0.000       0.000       0.000       0.000       0.000       0.000       0.000    
   2   2.0000E-10  1.0000E-10  2.0000E-10   0.000       0.000      8.0000E-10  8.0000E-10  5.0000E-10   0.000       0.000    
   3    0.000      5.0000E-10  1.0000E-10  1.0000E-10  8.0000E-10  8.0000E-10  5.0000E-10  5.0000E-10   0.000       0.000    
   4   8.0000E-10  5.0000E-10  1.0000E-10  1.0000E-10  1.0000E-10  1.0000E-10  1.0000E-10  1.0000E-10  2.0000E-10   0.000    
   5   8.0000E-10  5.0000E-10  1.0000E-10  1.0000E-10  1.0000E-10  1.0000E-10  1.0000E-10  1.0000E-10  1.0000E-10  1.0000E-10
   6   8.0000E-10  5.0000E-10  5.0000E-10  2.0000E-10  2.0000E-10  1.0000E-10  1.0000E-10  1.0000E-10  1.0000E-10  5.0000E-10
   7   8.0000E-10  5.0000E-10  5.0000E-10  2.0000E-10  2.0000E-10  1.0000E-10  1.0000E-10  2.0000E-10  2.0000E-10   0.000    
   8    0.000      5.0000E-10  5.0000E-10  2.0000E-10  2.0000E-10  1.0000E-10  1.0000E-10  2.0000E-10  5.0000E-10   0.000    
   9    0.000      5.0000E-10  5.0000E-10  2.0000E-10  2.0000E-10  1.0000E-10  1.0000E-10  2.0000E-10  5.0000E-10   0.000    
  10    0.000      5.0000E-10  5.0000E-10  2.0000E-10  2.0000E-10  1.0000E-10  1.0000E-10  2.0000E-10  5.0000E-10  8.0000E-10
  11    0.000      1.0000E-10  1.0000E-10  1.0000E-10  1.0000E-10  1.0000E-10  1.0000E-10  2.0000E-10  5.0000E-10   0.000    
  12   1.0000E-10  1.0000E-10  1.0000E-10  1.0000E-10  1.0000E-10  1.0000E-10  1.0000E-10  1.0000E-10  2.0000E-10   0.000    
  13   1.0000E-10  1.0000E-10  2.0000E-10  2.0000E-10  2.0000E-10  2.0000E-10  2.0000E-10  1.0000E-10  1.0000E-10   0.000    
  14    0.000      2.0000E-10  5.0000E-10  5.0000E-10  5.0000E-10  5.0000E-10  5.0000E-10  2.0000E-10  1.0000E-10   0.000    
  15    0.000       0.000      8.0000E-10  8.0000E-10  8.0000E-10  8.0000E-10   0.000       0.000       0.000       0.000    

                  ET RATE =  5.000000E-10

 USING ET EXTINCTION DEPTH FROM PREVIOUS STRESS PERIOD. CURRENT PERIOD IS:      27

 USING EXTINCTION WATER CONTENT FROM PREVIOUS STRESS PERIOD. CURRENT PERIOD IS:      27

 USING AIR ENTRY PRESSURE FROM PREVIOUS STRESS PERIOD. CURRENT PERIOD IS:      27

 USING ROOT PRESSURE HEAD FROM PREVIOUS STRESS PERIOD. CURRENT PERIOD IS:      27

 USING ROOT ACTIVITY FROM PREVIOUS STRESS PERIOD. CURRENT PERIOD IS:      27

 PROCESSING AG STRESS PERIOD DATA

 READING AG STRESS PERIOD DATA

 READING IRRIGATION SEGMENT

 READING IRRIGATION WELL

 READING SUPPLEMENTAL WELL

 NO IRRPOND OR REUSING IRRPOND DATA FROM LAST STRESS PERIOD

 END PROCESSING AG STRESS PERIOD DATA OPTIONS
 
 SOLVING FOR HEAD 
                                                   Max.-Head-Change                         Max.-Flux-Residual
  Residual-Control   Outer-Iter.   Inner-Iter.     Column Row Layer    Maximum-Head-Change  Column Row Layer    Maximum-Flux-Residual          L2-NORM 
          0                 1           2             3    8     1       0.1054868224E-01       7    8    1         0.4412215999E+00      0.1780394231E+01
          0                 2           2             3    8     1      -0.1028782261E-02       4    7    1        -0.4445994397E-01      0.1852415590E+00
          0                 3           2             4    7     1      -0.2298570168E-03       4    7    1        -0.1235247630E-01      0.1969812149E-01
          0                 4           1             4    7     1      -0.6345607023E-04       4    7    1        -0.3403658352E-02      0.4251576867E-02

    ------------------------------------------------
       NWT REQUIRED            4 OUTER ITERATIONS 
       AND A TOTAL OF          7 INNER ITERATIONS.
    ------------------------------------------------

 NO OUTPUT CONTROL FOR STRESS PERIOD   27   TIME STEP    1
 
 SOLVING FOR HEAD 
                                                   Max.-Head-Change                         Max.-Flux-Residual
  Residual-Control   Outer-Iter.   Inner-Iter.     Column Row Layer    Maximum-Head-Change  Column Row Layer    Maximum-Flux-Residual          L2-NORM 
          0                 1           2             3    8     1       0.1041090335E-01       7    8    1         0.4372804309E+00      0.1774911636E+01
          0                 2           2             3    8     1      -0.1014996921E-02       7    8    1        -0.4372813389E-01      0.1837934873E+00
          0                 3           2             4    7     1      -0.2144740786E-03       4    7    1        -0.1153740358E-01      0.1884899545E-01
          0                 4           1             4    7     1      -0.5913423969E-04       4    7    1        -0.3174764085E-02      0.3946271734E-02

    ------------------------------------------------
       NWT REQUIRED            4 OUTER ITERATIONS 
       AND A TOTAL OF          7 INNER ITERATIONS.
    ------------------------------------------------

 NO OUTPUT CONTROL FOR STRESS PERIOD   27   TIME STEP    2
 
 SOLVING FOR HEAD 
                                                   Max.-Head-Change                         Max.-Flux-Residual
  Residual-Control   Outer-Iter.   Inner-Iter.     Column Row Layer    Maximum-Head-Change  Column Row Layer    Maximum-Flux-Residual          L2-NORM 
          0                 1           2             3    8     1       0.1027644357E-01       5    4    1         0.4448012607E+00      0.1895336536E+01
          0                 2           2             3    8     1      -0.1001545724E-02       5    4    1        -0.4448024936E-01      0.1942461597E+00
          0                 3           1             4    7     1      -0.1995708594E-03       4    7    1        -0.1074815399E-01      0.1864628691E-01
          0                 4           1             4    7     1      -0.5494432297E-04       4    7    1        -0.2952967426E-02      0.3669030451E-02

    ------------------------------------------------
       NWT REQUIRED            4 OUTER ITERATIONS 
       AND A TOTAL OF          6 INNER ITERATIONS.
    ------------------------------------------------

 NO OUTPUT CONTROL FOR STRESS PERIOD   27   TIME STEP    3
 
 SOLVING FOR HEAD 
                                                   Max.-Head-Change                         Max.-Flux-Residual
  Residual-Control   Outer-Iter.   Inner-Iter.     Column Row Layer    Maximum-Head-Change  Column Row Layer    Maximum-Flux-Residual          L2-NORM 
          0                 1           2             3    8     1       0.1014541700E-01       5    4    1         0.4397972073E+00      0.1869718127E+01
          0                 2           2             3    8     1      -0.9884395648E-03       5    4    1        -0.4397983941E-01      0.1911985372E+00
          0                 3           1             4    7     1      -0.1851489677E-03       4    7    1        -0.9984372594E-02      0.1789793323E-01
          0                 4           1             4    7     1      -0.5088989615E-04       4    7    1        -0.2738336388E-02      0.3413156366E-02

    ------------------------------------------------
       NWT REQUIRED            4 OUTER ITERATIONS 
       AND A TOTAL OF          6 INNER ITERATIONS.
    ------------------------------------------------

 NO OUTPUT CONTROL FOR STRESS PERIOD   27   TIME STEP    4
 
 SOLVING FOR HEAD 
                                                   Max.-Head-Change                         Max.-Flux-Residual
  Residual-Control   Outer-Iter.   Inner-Iter.     Column Row Layer    Maximum-Head-Change  Column Row Layer    Maximum-Flux-Residual          L2-NORM 
          0                 1           2             3    8     1       0.1001771980E-01       5    4    1         0.4349668164E+00      0.1846445125E+01
          0                 2           2             3    8     1      -0.9756672318E-03       5    4    1        -0.4349679597E-01      0.1884660066E+00
          0                 3           1             4    7     1      -0.1711710338E-03       4    7    1        -0.9244066806E-02      0.1724104002E-01
          0                 4           1             4    7     1      -0.4696053511E-04       4    7    1        -0.2530316119E-02      0.3184781532E-02

    ------------------------------------------------
       NWT REQUIRED            4 OUTER ITERATIONS 
       AND A TOTAL OF          6 INNER ITERATIONS.
    ------------------------------------------------

 NO OUTPUT CONTROL FOR STRESS PERIOD   27   TIME STEP    5
 
 SOLVING FOR HEAD 
                                                   Max.-Head-Change                         Max.-Flux-Residual
  Residual-Control   Outer-Iter.   Inner-Iter.     Column Row Layer    Maximum-Head-Change  Column Row Layer    Maximum-Flux-Residual          L2-NORM 
          0                 1           2             3    8     1       0.9893253510E-02       5    4    1         0.4302756382E+00      0.1825215927E+01
          0                 2           2             3    8     1      -0.9632196740E-03       5    4    1        -0.4302767405E-01      0.1860166625E+00
          0                 3           1             4    7     1      -0.1576628335E-03       4    7    1        -0.8528651741E-02      0.1667590708E-01
          0                 4           1             4    7     1      -0.4316314465E-04       4    7    1        -0.2329285242E-02      0.2986355379E-02

    ------------------------------------------------
       NWT REQUIRED            4 OUTER ITERATIONS 
       AND A TOTAL OF          6 INNER ITERATIONS.
    ------------------------------------------------

 NO OUTPUT CONTROL FOR STRESS PERIOD   27   TIME STEP    6
 
 SOLVING FOR HEAD 
                                                   Max.-Head-Change                         Max.-Flux-Residual
  Residual-Control   Outer-Iter.   Inner-Iter.     Column Row Layer    Maximum-Head-Change  Column Row Layer    Maximum-Flux-Residual          L2-NORM 
          0                 1           2             3    8     1       0.9771921769E-02       5    4    1         0.4257565025E+00      0.1805772571E+01
          0                 2           2             3    8     1      -0.9510871809E-03       5    4    1        -0.4257575656E-01      0.1838221717E+00
          0                 3           1             4    7     1      -0.1445883855E-03       4    7    1        -0.7836180691E-02      0.1620089211E-01
          0                 4           1             4    7     1      -0.3948788768E-04       4    7    1        -0.2134712355E-02      0.2819690819E-02

    ------------------------------------------------
       NWT REQUIRED            4 OUTER ITERATIONS 
       AND A TOTAL OF          6 INNER ITERATIONS.
    ------------------------------------------------

 NO OUTPUT CONTROL FOR STRESS PERIOD   27   TIME STEP    7
 
 SOLVING FOR HEAD 
                                                   Max.-Head-Change                         Max.-Flux-Residual
  Residual-Control   Outer-Iter.   Inner-Iter.     Column Row Layer    Maximum-Head-Change  Column Row Layer    Maximum-Flux-Residual          L2-NORM 
          0                 1           2             3    8     1       0.9653843864E-02       5    4    1         0.4213622521E+00      0.1787895590E+01
          0                 2           2             3    8     1      -0.9392810041E-03       5    4    1        -0.4213632783E-01      0.1818553217E+00
          0                 3           1             4    7     1      -0.1319105881E-03       4    7    1        -0.7164694069E-02      0.1581289293E-01
          0                 4           1             4    7     1      -0.3592430979E-04       4    7    1        -0.1946044865E-02      0.2686135041E-02

    ------------------------------------------------
       NWT REQUIRED            4 OUTER ITERATIONS 
       AND A TOTAL OF          6 INNER ITERATIONS.
    ------------------------------------------------

 NO OUTPUT CONTROL FOR STRESS PERIOD   27   TIME STEP    8
 
 SOLVING FOR HEAD 
                                                   Max.-Head-Change                         Max.-Flux-Residual
  Residual-Control   Outer-Iter.   Inner-Iter.     Column Row Layer    Maximum-Head-Change  Column Row Layer    Maximum-Flux-Residual          L2-NORM 
          0                 1           2             3    8     1       0.9538708120E-02       5    4    1         0.4171134468E+00      0.1771390558E+01
          0                 2           2             3    8     1      -0.9277705644E-03       5    4    1        -0.4171144378E-01      0.1800966175E+00
          0                 3           1             4    7     1      -0.1196568858E-03       4    7    1        -0.6515695995E-02      0.1551120444E-01
          0                 4           1             4    7     1      -0.3247993982E-04       4    7    1        -0.1763715897E-02      0.2587354470E-02

    ------------------------------------------------
       NWT REQUIRED            4 OUTER ITERATIONS 
       AND A TOTAL OF          6 INNER ITERATIONS.
    ------------------------------------------------

 NO OUTPUT CONTROL FOR STRESS PERIOD   27   TIME STEP    9
 
 SOLVING FOR HEAD 
                                                   Max.-Head-Change                         Max.-Flux-Residual
  Residual-Control   Outer-Iter.   Inner-Iter.     Column Row Layer    Maximum-Head-Change  Column Row Layer    Maximum-Flux-Residual          L2-NORM 
          0                 1           2             3    8     1       0.9426431775E-02       5    4    1         0.4129904447E+00      0.1756078628E+01
          0                 2           2             3    8     1      -0.9165467797E-03       5    4    1        -0.4129914021E-01      0.1785215341E+00
          0                 3           1             4    7     1      -0.1077927324E-03       4    7    1        -0.5887296580E-02      0.1528963166E-01
          0                 4           1             4    7     1      -0.2914495141E-04       4    7    1        -0.1587127728E-02      0.2523328932E-02

    ------------------------------------------------
       NWT REQUIRED            4 OUTER ITERATIONS 
       AND A TOTAL OF          6 INNER ITERATIONS.
    ------------------------------------------------

 NO OUTPUT CONTROL FOR STRESS PERIOD   27   TIME STEP   10
 
 SOLVING FOR HEAD 
                                                   Max.-Head-Change                         Max.-Flux-Residual
  Residual-Control   Outer-Iter.   Inner-Iter.     Column Row Layer    Maximum-Head-Change  Column Row Layer    Maximum-Flux-Residual          L2-NORM 
          0                 1           2             3    8     1       0.9316924594E-02       5    4    1         0.4090002934E+00      0.1741841969E+01
          0                 2           2             3    8     1      -0.9056021589E-03       5    4    1        -0.4090012193E-01      0.1771143579E+00
          0                 3           1             5    8     1       0.1110502662E-03       5    8    1         0.6030699857E-02      0.1514379049E-01
          0                 4           1             5    8     1       0.2971024364E-04       5    8    1         0.1633503450E-02      0.2493200783E-02

    ------------------------------------------------
       NWT REQUIRED            4 OUTER ITERATIONS 
       AND A TOTAL OF          6 INNER ITERATIONS.
    ------------------------------------------------

 NO OUTPUT CONTROL FOR STRESS PERIOD   27   TIME STEP   11
 
 SOLVING FOR HEAD 
                                                   Max.-Head-Change                         Max.-Flux-Residual
  Residual-Control   Outer-Iter.   Inner-Iter.     Column Row Layer    Maximum-Head-Change  Column Row Layer    Maximum-Flux-Residual          L2-NORM 
          0                 1           2             3    8     1       0.9210318367E-02       5    4    1         0.4051244726E+00      0.1728555567E+01
          0                 2           2             3    8     1      -0.8949476501E-03       5    4    1        -0.4051253684E-01      0.1758641256E+00
          0                 3           1             5    8     1       0.1150965364E-03       5    8    1         0.6243118447E-02      0.1506992164E-01
          0                 4           1             5    8     1       0.3086311023E-04       5    8    1         0.1693922904E-02      0.2495129372E-02

    ------------------------------------------------
       NWT REQUIRED            4 OUTER ITERATIONS 
       AND A TOTAL OF          6 INNER ITERATIONS.
    ------------------------------------------------

 NO OUTPUT CONTROL FOR STRESS PERIOD   27   TIME STEP   12
 
 SOLVING FOR HEAD 
                                                   Max.-Head-Change                         Max.-Flux-Residual
  Residual-Control   Outer-Iter.   Inner-Iter.     Column Row Layer    Maximum-Head-Change  Column Row Layer    Maximum-Flux-Residual          L2-NORM 
          0                 1           2             3    8     1       0.9106313487E-02       5    4    1         0.4013578585E+00      0.1716094093E+01
          0                 2           2             3    8     1      -0.8845554006E-03       5    4    1        -0.4013587255E-01      0.1747405270E+00
          0                 3           1             5    8     1       0.1189974438E-03       5    8    1         0.6447871229E-02      0.1506018139E-01
          0                 4           1             5    8     1       0.3197480855E-04       5    8    1         0.1752175307E-02      0.2525671421E-02

    ------------------------------------------------
       NWT REQUIRED            4 OUTER ITERATIONS 
       AND A TOTAL OF          6 INNER ITERATIONS.
    ------------------------------------------------

 NO OUTPUT CONTROL FOR STRESS PERIOD   27   TIME STEP   13
 
 SOLVING FOR HEAD 
                                                   Max.-Head-Change                         Max.-Flux-Residual
  Residual-Control   Outer-Iter.   Inner-Iter.     Column Row Layer    Maximum-Head-Change  Column Row Layer    Maximum-Flux-Residual          L2-NORM 
          0                 1           2             3    8     1       0.9005046155E-02       7    8    1         0.3981501657E+00      0.1704386704E+01
          0                 2           2             3    8     1      -0.8744368891E-03       7    8    1        -0.3981508591E-01      0.1737452973E+00
          0                 3           1             5    8     1       0.1227611378E-03       5    8    1         0.6645368574E-02      0.1510961755E-01
          0                 4           1             5    8     1       0.3304775141E-04       5    8    1         0.1808383896E-02      0.2581384142E-02

    ------------------------------------------------
       NWT REQUIRED            4 OUTER ITERATIONS 
       AND A TOTAL OF          6 INNER ITERATIONS.
    ------------------------------------------------

 NO OUTPUT CONTROL FOR STRESS PERIOD   27   TIME STEP   14
 
 SOLVING FOR HEAD 
                                                   Max.-Head-Change                         Max.-Flux-Residual
  Residual-Control   Outer-Iter.   Inner-Iter.     Column Row Layer    Maximum-Head-Change  Column Row Layer    Maximum-Flux-Residual          L2-NORM 
          0                 1           2             3    8     1       0.8906220300E-02       7    8    1         0.3952000329E+00      0.1693352309E+01
          0                 2           2             3    8     1      -0.8645645728E-03       7    8    1        -0.3952007135E-01      0.1728622238E+00
          0                 3           1             5    8     1       0.1264125441E-03       5    8    1         0.6836999493E-02      0.1521140364E-01
          0                 4           1             5    8     1       0.3408849598E-04       5    8    1         0.1862912905E-02      0.2658082871E-02

    ------------------------------------------------
       NWT REQUIRED            4 OUTER ITERATIONS 
       AND A TOTAL OF          6 INNER ITERATIONS.
    ------------------------------------------------

 NO OUTPUT CONTROL FOR STRESS PERIOD   27   TIME STEP   15
 
 SOLVING FOR HEAD 
                                                   Max.-Head-Change                         Max.-Flux-Residual
  Residual-Control   Outer-Iter.   Inner-Iter.     Column Row Layer    Maximum-Head-Change  Column Row Layer    Maximum-Flux-Residual          L2-NORM 
          0                 1           2             3    8     1       0.8809764762E-02       7    8    1         0.3922985446E+00      0.1682906434E+01
          0                 2           2             3    8     1      -0.8549297528E-03       7    8    1        -0.3922992124E-01      0.1720796802E+00
          0                 3           1             5    8     1       0.1299367273E-03       5    8    1         0.7021902690E-02      0.1535951538E-01
          0                 4           1             5    8     1       0.3509332785E-04       5    8    1         0.1915547071E-02      0.2752134353E-02

    ------------------------------------------------
       NWT REQUIRED            4 OUTER ITERATIONS 
       AND A TOTAL OF          6 INNER ITERATIONS.
    ------------------------------------------------

 NO OUTPUT CONTROL FOR STRESS PERIOD   27   TIME STEP   16
 
 SOLVING FOR HEAD 
                                                   Max.-Head-Change                         Max.-Flux-Residual
  Residual-Control   Outer-Iter.   Inner-Iter.     Column Row Layer    Maximum-Head-Change  Column Row Layer    Maximum-Flux-Residual          L2-NORM 
          0                 1           2             3    8     1       0.8716028994E-02       7    8    1         0.3894397766E+00      0.1673020281E+01
          0                 2           2             3    8     1      -0.8455488980E-03       7    8    1        -0.3894404322E-01      0.1713827379E+00
          0                 3           1             5    8     1       0.1325040464E-03       5    8    1         0.7164736178E-02      0.1553825163E-01
          0                 4           1             5    8     1       0.3577419089E-04       5    8    1         0.1953081909E-02      0.2854488620E-02

    ------------------------------------------------
       NWT REQUIRED            4 OUTER ITERATIONS 
       AND A TOTAL OF          6 INNER ITERATIONS.
    ------------------------------------------------

 NO OUTPUT CONTROL FOR STRESS PERIOD   27   TIME STEP   17
 
 SOLVING FOR HEAD 
                                                   Max.-Head-Change                         Max.-Flux-Residual
  Residual-Control   Outer-Iter.   Inner-Iter.     Column Row Layer    Maximum-Head-Change  Column Row Layer    Maximum-Flux-Residual          L2-NORM 
          0                 1           2             3    8     1       0.8624585597E-02       7    8    1         0.3866177113E+00      0.1663628031E+01
          0                 2           2             3    8     1      -0.8364114703E-03       7    8    1        -0.3866183548E-01      0.1707772050E+00
          0                 3           1             5    8     1       0.1358090257E-03       5    8    1         0.7337744875E-02      0.1576154419E-01
          0                 4           1             5    8     1       0.3671915968E-04       5    8    1         0.2002481396E-02      0.2972913248E-02

    ------------------------------------------------
       NWT REQUIRED            4 OUTER ITERATIONS 
       AND A TOTAL OF          6 INNER ITERATIONS.
    ------------------------------------------------

 NO OUTPUT CONTROL FOR STRESS PERIOD   27   TIME STEP   18
 
 SOLVING FOR HEAD 
                                                   Max.-Head-Change                         Max.-Flux-Residual
  Residual-Control   Outer-Iter.   Inner-Iter.     Column Row Layer    Maximum-Head-Change  Column Row Layer    Maximum-Flux-Residual          L2-NORM 
          0                 1           2             3    8     1       0.8535328371E-02       7    8    1         0.3838438310E+00      0.1654671919E+01
          0                 2           2             3    8     1      -0.8274888429E-03       7    8    1        -0.3838444627E-01      0.1702419115E+00
          0                 3           2             5    8     1       0.1387880493E-03       5    8    1         0.7492875032E-02      0.1601112207E-01
          0                 4           1             5    8     1       0.3757664188E-04       5    8    1         0.2047091763E-02      0.3098018444E-02

    ------------------------------------------------
       NWT REQUIRED            4 OUTER ITERATIONS 
       AND A TOTAL OF          7 INNER ITERATIONS.
    ------------------------------------------------

 NO OUTPUT CONTROL FOR STRESS PERIOD   27   TIME STEP   19
 
 SOLVING FOR HEAD 
                                                   Max.-Head-Change                         Max.-Flux-Residual
  Residual-Control   Outer-Iter.   Inner-Iter.     Column Row Layer    Maximum-Head-Change  Column Row Layer    Maximum-Flux-Residual          L2-NORM 
          0                 1           2             3    8     1       0.8448406359E-02       7    8    1         0.3811174448E+00      0.1646133165E+01
          0                 2           2             3    8     1      -0.8188014190E-03       7    8    1        -0.3811180649E-01      0.1697777842E+00
          0                 3           2             5    8     1       0.1417302804E-03       5    8    1         0.7646297666E-02      0.1628633128E-01
          0                 4           1             5    8     1       0.3842207323E-04       5    8    1         0.2091129899E-02      0.3229220716E-02

    ------------------------------------------------
       NWT REQUIRED            4 OUTER ITERATIONS 
       AND A TOTAL OF          7 INNER ITERATIONS.
    ------------------------------------------------

 NO OUTPUT CONTROL FOR STRESS PERIOD   27   TIME STEP   20
 
 SOLVING FOR HEAD 
                                                   Max.-Head-Change                         Max.-Flux-Residual
  Residual-Control   Outer-Iter.   Inner-Iter.     Column Row Layer    Maximum-Head-Change  Column Row Layer    Maximum-Flux-Residual          L2-NORM 
          0                 1           2             3    8     1       0.8363746881E-02       7    8    1         0.3784266910E+00      0.1637974102E+01
          0                 2           2             3    8     1      -0.8103418458E-03       7    8    1        -0.3784272998E-01      0.1693765801E+00
          0                 3           2             5    8     1       0.1445731315E-03       5    8    1         0.7794525715E-02      0.1658175571E-01
          0                 4           1             5    8     1       0.3923903619E-04       5    8    1         0.2133681813E-02      0.3364216293E-02

    ------------------------------------------------
       NWT REQUIRED            4 OUTER ITERATIONS 
       AND A TOTAL OF          7 INNER ITERATIONS.
    ------------------------------------------------

 NO OUTPUT CONTROL FOR STRESS PERIOD   27   TIME STEP   21
 
 SOLVING FOR HEAD 
                                                   Max.-Head-Change                         Max.-Flux-Residual
  Residual-Control   Outer-Iter.   Inner-Iter.     Column Row Layer    Maximum-Head-Change  Column Row Layer    Maximum-Flux-Residual          L2-NORM 
          0                 1           2             3    8     1       0.8281272580E-02       7    8    1         0.3757828907E+00      0.1630153171E+01
          0                 2           2             3    8     1      -0.8021029911E-03       7    8    1        -0.3757834885E-01      0.1690317622E+00
          0                 3           2             5    8     1       0.1473600729E-03       5    8    1         0.7939948360E-02      0.1689426582E-01
          0                 4           1             5    8     1       0.4003916143E-04       5    8    1         0.2175385686E-02      0.3502148572E-02

    ------------------------------------------------
       NWT REQUIRED            4 OUTER ITERATIONS 
       AND A TOTAL OF          7 INNER ITERATIONS.
    ------------------------------------------------

 NO OUTPUT CONTROL FOR STRESS PERIOD   27   TIME STEP   22
 
 SOLVING FOR HEAD 
                                                   Max.-Head-Change                         Max.-Flux-Residual
  Residual-Control   Outer-Iter.   Inner-Iter.     Column Row Layer    Maximum-Head-Change  Column Row Layer    Maximum-Flux-Residual          L2-NORM 
          0                 1           2             3    8     1       0.8200709476E-02       7    8    1         0.3731797397E+00      0.1622652691E+01
          0                 2           2             3    8     1      -0.7940563679E-03       7    8    1        -0.3731803268E-01      0.1687386791E+00
          0                 3           2             5    8     1       0.1500890742E-03       5    8    1         0.8082456884E-02      0.1721964125E-01
          0                 4           1             5    8     1       0.4082186418E-04       5    8    1         0.2216211381E-02      0.3640511014E-02

    ------------------------------------------------
       NWT REQUIRED            4 OUTER ITERATIONS 
       AND A TOTAL OF          7 INNER ITERATIONS.
    ------------------------------------------------

 NO OUTPUT CONTROL FOR STRESS PERIOD   27   TIME STEP   23
 
 SOLVING FOR HEAD 
                                                   Max.-Head-Change                         Max.-Flux-Residual
  Residual-Control   Outer-Iter.   Inner-Iter.     Column Row Layer    Maximum-Head-Change  Column Row Layer    Maximum-Flux-Residual          L2-NORM 
          0                 1           2             3    8     1       0.8122206825E-02       7    8    1         0.3706168555E+00      0.1615441588E+01
          0                 2           2             3    8     1      -0.7862177671E-03       7    8    1        -0.3706174319E-01      0.1684912164E+00
          0                 3           2             5    8     1       0.1527205630E-03       5    8    1         0.8219838976E-02      0.1755454812E-01
          0                 4           1             5    8     1       0.4157685163E-04       5    8    1         0.2255581827E-02      0.3779323579E-02

    ------------------------------------------------
       NWT REQUIRED            4 OUTER ITERATIONS 
       AND A TOTAL OF          7 INNER ITERATIONS.
    ------------------------------------------------

 NO OUTPUT CONTROL FOR STRESS PERIOD   27   TIME STEP   24
 
 SOLVING FOR HEAD 
                                                   Max.-Head-Change                         Max.-Flux-Residual
  Residual-Control   Outer-Iter.   Inner-Iter.     Column Row Layer    Maximum-Head-Change  Column Row Layer    Maximum-Flux-Residual          L2-NORM 
          0                 1           2             3    8     1       0.8045906775E-02       7    8    1         0.3680992775E+00      0.1608512759E+01
          0                 2           2             3    8     1      -0.7786006439E-03       7    8    1        -0.3680998436E-01      0.1682874801E+00
          0                 3           2             5    8     1       0.1552963224E-03       5    8    1         0.8354421720E-02      0.1789732279E-01
          0                 4           1             5    8     1       0.4231507963E-04       5    8    1         0.2294107273E-02      0.3917825641E-02

    ------------------------------------------------
       NWT REQUIRED            4 OUTER ITERATIONS 
       AND A TOTAL OF          7 INNER ITERATIONS.
    ------------------------------------------------

 NO OUTPUT CONTROL FOR STRESS PERIOD   27   TIME STEP   25
 
 SOLVING FOR HEAD 
                                                   Max.-Head-Change                         Max.-Flux-Residual
  Residual-Control   Outer-Iter.   Inner-Iter.     Column Row Layer    Maximum-Head-Change  Column Row Layer    Maximum-Flux-Residual          L2-NORM 
          0                 1           2             3    8     1       0.7971111970E-02       6    4    1         0.3658290752E+00      0.1601832080E+01
          0                 2           2             3    8     1      -0.7711354120E-03       6    4    1        -0.3658294647E-01      0.1681217176E+00
          0                 3           2             5    8     1       0.1578187162E-03       5    8    1         0.8486280092E-02      0.1824541087E-01
          0                 4           1             5    8     1       0.4303754214E-04       5    8    1         0.2331827906E-02      0.4055335924E-02

    ------------------------------------------------
       NWT REQUIRED            4 OUTER ITERATIONS 
       AND A TOTAL OF          7 INNER ITERATIONS.
    ------------------------------------------------

 NO OUTPUT CONTROL FOR STRESS PERIOD   27   TIME STEP   26
 
 SOLVING FOR HEAD 
                                                   Max.-Head-Change                         Max.-Flux-Residual
  Residual-Control   Outer-Iter.   Inner-Iter.     Column Row Layer    Maximum-Head-Change  Column Row Layer    Maximum-Flux-Residual          L2-NORM 
          0                 1           2             3    8     1       0.7898403890E-02       6    4    1         0.3637834711E+00      0.1595389125E+01
          0                 2           2             3    8     1      -0.7638799301E-03       6    4    1        -0.3637838597E-01      0.1679903138E+00
          0                 3           2             5    8     1       0.1602659900E-03       5    8    1         0.8614233576E-02      0.1859649210E-01
          0                 4           1             5    8     1       0.4373834103E-04       5    8    1         0.2368422989E-02      0.4191289367E-02

    ------------------------------------------------
       NWT REQUIRED            4 OUTER ITERATIONS 
       AND A TOTAL OF          7 INNER ITERATIONS.
    ------------------------------------------------

 NO OUTPUT CONTROL FOR STRESS PERIOD   27   TIME STEP   27
 
 SOLVING FOR HEAD 
                                                   Max.-Head-Change                         Max.-Flux-Residual
  Residual-Control   Outer-Iter.   Inner-Iter.     Column Row Layer    Maximum-Head-Change  Column Row Layer    Maximum-Flux-Residual          L2-NORM 
          0                 1           2             3    8     1       0.7827510331E-02       6    4    1         0.3617534115E+00      0.1589170215E+01
          0                 2           2             3    8     1      -0.7568066735E-03       6    4    1        -0.3617537985E-01      0.1678894687E+00
          0                 3           2             5    8     1       0.1626398827E-03       5    8    1         0.8738370008E-02      0.1894836751E-01
          0                 4           1             5    8     1       0.4441798928E-04       5    8    1         0.2403918777E-02      0.4325112028E-02

    ------------------------------------------------
       NWT REQUIRED            4 OUTER ITERATIONS 
       AND A TOTAL OF          7 INNER ITERATIONS.
    ------------------------------------------------

 NO OUTPUT CONTROL FOR STRESS PERIOD   27   TIME STEP   28
 
 SOLVING FOR HEAD 
                                                   Max.-Head-Change                         Max.-Flux-Residual
  Residual-Control   Outer-Iter.   Inner-Iter.     Column Row Layer    Maximum-Head-Change  Column Row Layer    Maximum-Flux-Residual          L2-NORM 
          0                 1           2             3    8     1       0.7758372713E-02       6    4    1         0.3597278965E+00      0.1583158953E+01
          0                 2           2             3    8     1      -0.7499105206E-03       6    4    1        -0.3597282821E-01      0.1678161134E+00
          0                 3           2             5    8     1       0.1649424360E-03       5    8    1         0.8858792467E-02      0.1929986499E-01
          0                 4           1             5    8     1       0.4507708890E-04       5    8    1         0.2438346117E-02      0.4456667916E-02

    ------------------------------------------------
       NWT REQUIRED            4 OUTER ITERATIONS 
       AND A TOTAL OF          7 INNER ITERATIONS.
    ------------------------------------------------

 NO OUTPUT CONTROL FOR STRESS PERIOD   27   TIME STEP   29
 
 SOLVING FOR HEAD 
                                                   Max.-Head-Change                         Max.-Flux-Residual
  Residual-Control   Outer-Iter.   Inner-Iter.     Column Row Layer    Maximum-Head-Change  Column Row Layer    Maximum-Flux-Residual          L2-NORM 
          0                 1           2             3    8     1       0.7690726741E-02       6    4    1         0.3577322156E+00      0.1577341568E+01
          0                 2           2             3    8     1      -0.7431647339E-03       6    4    1        -0.3577325992E-01      0.1677687479E+00
          0                 3           2             5    8     1       0.1671965058E-03       5    8    1         0.8976738982E-02      0.1965079621E-01
          0                 4           1             5    8     1       0.4572189018E-04       5    8    1         0.2472042489E-02      0.4586065885E-02

    ------------------------------------------------
       NWT REQUIRED            4 OUTER ITERATIONS 
       AND A TOTAL OF          7 INNER ITERATIONS.
    ------------------------------------------------

 NO OUTPUT CONTROL FOR STRESS PERIOD   27   TIME STEP   30



 STREAM LISTING     PERIOD     27   STEP       30

 LAYER ROW COL. STREAM  RCH.  FLOW INTO     FLOW TO   FLOW OUT OF   OVRLND.     DIRECT     STREAM       STREAM     STREAM     STREAM   STREAMBED  STREAMBED
                SEG.NO.  NO.  STRM. RCH.    AQUIFER    STRM. RCH.    RUNOFF     PRECIP       ET          HEAD       DEPTH      WIDTH   CONDCTNC.   GRADIENT

   1    1    1     1     1    3.1499E+01  2.7310E-01   3.1226E+01  0.000E+00  0.000E+00  0.000E+00  1.09431E+03  1.262E+00  1.424E+01  6.407E-02  1.421E+00
   1    2    2     1     2    3.1226E+01  4.2272E-01   3.0803E+01  0.000E+00  0.000E+00  0.000E+00  1.08932E+03  1.259E+00  1.418E+01  9.925E-02  1.420E+00
   1    3    3     1     3    3.0803E+01  3.6028E-01   3.0443E+01  0.000E+00  0.000E+00  0.000E+00  1.08367E+03  1.256E+00  1.411E+01  8.466E-02  1.419E+00
   1    3    4     1     4    3.0443E+01  3.3158E-01   3.0111E+01  0.000E+00  0.000E+00  0.000E+00  1.07866E+03  1.253E+00  1.405E+01  7.797E-02  1.418E+00
   1    4    5     2     1    2.8111E+01  3.3470E-01   2.7777E+01  0.000E+00  0.000E+00  0.000E+00  1.07322E+03  1.291E+00  1.200E+01  7.800E-02  1.430E+00
   1    5    6     2     2    2.7777E+01  2.5697E-01   2.7520E+01  0.000E+00  0.000E+00  0.000E+00  1.06779E+03  1.283E+00  1.200E+01  6.000E-02  1.428E+00
   1    6    6     2     3    2.7520E+01  2.5654E-01   2.7263E+01  0.000E+00  0.000E+00  0.000E+00  1.06307E+03  1.276E+00  1.200E+01  6.000E-02  1.425E+00
   1    7    6     2     4    2.7263E+01  2.5611E-01   2.7007E+01  0.000E+00  0.000E+00  0.000E+00  1.05834E+03  1.268E+00  1.200E+01  6.000E-02  1.423E+00
   1    8    6     2     5    2.7007E+01  2.5567E-01   2.6751E+01  0.000E+00  0.000E+00  0.000E+00  1.05362E+03  1.261E+00  1.200E+01  6.000E-02  1.420E+00
   1    3    5     3     1    2.0000E+00  2.8252E-01   1.7175E+00  0.000E+00  0.000E+00  0.000E+00  1.07555E+03  1.909E+00  9.636E+00  7.227E-02  1.955E+00
   1    3    6     3     2    1.7175E+00  2.4905E-01   1.4684E+00  0.000E+00  0.000E+00  0.000E+00  1.07264E+03  1.727E+00  8.909E+00  6.682E-02  1.864E+00
   1    3    7     3     3    1.4684E+00  1.9718E-01   1.2712E+00  0.000E+00  0.000E+00  0.000E+00  1.06987E+03  1.555E+00  8.218E+00  5.547E-02  1.777E+00
   1    4    8     3     4    1.2712E+00  2.2567E-01   1.0456E+00  0.000E+00  0.000E+00  0.000E+00  1.06682E+03  1.364E+00  7.455E+00  6.709E-02  1.682E+00
   1    5    8     3     5    1.0456E+00  1.5790E-01   8.8768E-01  0.000E+00  0.000E+00  0.000E+00  1.06362E+03  1.164E+00  6.655E+00  4.991E-02  1.582E+00
   1    6    8     3     6    8.8768E-01  5.5980E-02   8.3170E-01  0.000E+00  0.000E+00  0.000E+00  1.06158E+03  1.036E+00  6.145E+00  1.844E-02  1.518E+00
   1    5   10     4     1    1.0000E+01  9.0919E-02   9.9091E+00  0.000E+00  0.000E+00  0.000E+00  1.07836E+03  6.368E-01  1.000E+01  2.500E-02  1.212E+00
   1    5    9     4     2    9.9091E+00  1.8158E-01   9.7275E+00  0.000E+00  0.000E+00  0.000E+00  1.07154E+03  6.315E-01  1.000E+01  5.000E-02  1.211E+00
   1    6    8     4     3    9.7275E+00  1.2689E-01   9.6006E+00  0.000E+00  0.000E+00  0.000E+00  1.06381E+03  6.256E-01  1.000E+01  3.500E-02  1.209E+00
   1    6    8     5     1    1.0432E+01  2.2686E-01   1.0205E+01  0.000E+00  0.000E+00  0.000E+00  1.05868E+03  6.790E-01  1.542E+01  6.166E-02  1.226E+00
   1    7    7     5     2    1.0205E+01  2.7894E-01   9.9265E+00  0.000E+00  0.000E+00  0.000E+00  1.05417E+03  6.732E-01  1.519E+01  7.594E-02  1.224E+00
   1    8    7     5     3    9.9265E+00  1.9221E-01   9.7343E+00  0.000E+00  0.000E+00  0.000E+00  1.04992E+03  6.676E-01  1.497E+01  5.241E-02  1.223E+00
   1    8    6     5     4    9.7343E+00  1.3577E-01   9.5985E+00  0.000E+00  0.000E+00  0.000E+00  1.04691E+03  6.637E-01  1.482E+01  3.706E-02  1.221E+00
   1    9    6     6     1    3.6350E+01  2.7151E-01   3.6078E+01  0.000E+00  0.000E+00  0.000E+00  1.04425E+03  1.525E+00  1.200E+01  6.000E-02  1.508E+00
   1   10    7     6     2    3.6078E+01  2.7109E-01   3.5807E+01  0.000E+00  0.000E+00  0.000E+00  1.03970E+03  1.518E+00  1.200E+01  6.000E-02  1.506E+00
   1   11    7     6     3    3.5807E+01  2.7068E-01   3.5537E+01  0.000E+00  0.000E+00  0.000E+00  1.03515E+03  1.511E+00  1.200E+01  6.000E-02  1.504E+00
   1   12    7     6     4    3.5537E+01  2.7027E-01   3.5266E+01  0.000E+00  0.000E+00  0.000E+00  1.03060E+03  1.504E+00  1.200E+01  6.000E-02  1.501E+00
   1   13    7     6     5    3.5266E+01  1.5699E-02   3.5251E+01  0.000E+00  0.000E+00  0.000E+00  1.02741E+03  1.501E+00  1.200E+01  2.400E-02  2.180E-01
   1   14    9     7     1    1.5000E+02  1.3580E+00   1.4864E+02  0.000E+00  0.000E+00  0.000E+00  1.03987E+03  2.288E+00  5.529E+01  5.593E-01  8.093E-01
   1   13    8     7     2    1.4864E+02  1.9280E+00   1.4671E+02  0.000E+00  0.000E+00  0.000E+00  1.03478E+03  2.279E+00  5.526E+01  6.148E-01  1.045E+00
   1   13    7     7     3    1.4671E+02  1.6378E+00   1.4508E+02  0.000E+00  0.000E+00  0.000E+00  1.02969E+03  2.269E+00  5.521E+01  5.584E-01  9.777E-01
   1   13    6     8     1    1.8033E+02  1.1298E+00   1.7920E+02  0.000E+00  0.000E+00  0.000E+00  1.02489E+03  3.015E+00  4.371E+01  4.454E-01  8.454E-01
   1   13    5     8     2    1.7920E+02  3.4776E-01   1.7885E+02  0.000E+00  0.000E+00  0.000E+00  1.01864E+03  3.010E+00  4.365E+01  4.448E-01  2.606E-01
   1   13    4     8     3    1.7885E+02 -1.9058E+00   1.8076E+02  0.000E+00  0.000E+00  0.000E+00  1.01239E+03  3.015E+00  4.372E+01  4.455E+00 -1.426E-01
   1   13    3     8     4    1.8076E+02 -3.3660E+00   1.8412E+02  0.000E+00  0.000E+00  0.000E+00  1.00616E+03  3.031E+00  4.396E+01  4.479E+00 -2.505E-01
   1   13    2     8     5    1.8412E+02 -2.4672E+00   1.8659E+02  0.000E+00  0.000E+00  0.000E+00  9.99924E+02  3.050E+00  4.422E+01  4.506E+00 -1.825E-01
   1   13    1     8     6    1.8659E+02 -1.9167E+00   1.8851E+02  0.000E+00  0.000E+00  0.000E+00  9.94938E+02  3.063E+00  4.441E+01  2.716E+00 -2.353E-01
   1    8    6     9     1    0.0000E+00  0.0000E+00   0.0000E+00  0.000E+00  0.000E+00  0.000E+00  1.07875E+03  0.000E+00  4.000E+00  0.000E+00  1.000E+00
   1    8    5     9     2    0.0000E+00  0.0000E+00   0.0000E+00  0.000E+00  0.000E+00  0.000E+00  1.07825E+03  0.000E+00  4.000E+00  0.000E+00  1.000E+00





UNSATURATED ZONE PACKAGE VOLUMETRIC BUDGET FOR  TIME STEP    30 STRESS PERIOD   27
  ------------------------------------------------------------------------------



     CUMULATIVE VOLUMES      L**3       RATES FOR THIS TIME STEP      L**3/T
     ------------------                 ------------------------

           IN:                                      IN:
           ---                                      ---
        INFILTRATION =  6024559474.7884          INFILTRATION =           0.8475

          OUT:                                     OUT:
          ----                                     ----
              UZF ET =   866879563.4328                UZF ET =           0.7500
        UZF RECHARGE =  4769155704.0213          UZF RECHARGE =           6.5321

            IN - OUT =   388524207.3343              IN - OUT =          -6.4346

          STORAGE:                                 STORAGE:
          --------                                 --------
      STORAGE CHANGE =   389363053.6291        STORAGE CHANGE =          -6.4346

 PERCENT DISCREPANCY IS DIFFERENCE BETWEEN IN-OUT MINUS CHANGE IN STORAGE
 DIVIDED BY THE AVERAGE OF IN AND OUT TIMES 100

 PERCENT DISCREPANCY =          -0.00     PERCENT DISCREPANCY =           0.00






1
  VOLUMETRIC BUDGET FOR AGRICULTURAL FIELDS AT  END OF TIME STEP   30, STRESS PERIOD  27
  ------------------------------------------------------------------------------

     CUMULATIVE VOLUMES      L**3       RATES FOR THIS TIME STEP      L**3/T
     ------------------                 ------------------------

           IN:                                      IN:
           ---                                      ---
               AG WELLS  =  5381544960.0000                 AG WELLS  =           0.0000
      DIVERSION SEGMENTS =   585000640.0000        DIVERSION SEGMENTS =           0.0000
       IRRIGATION PONDS  =           0.0000         IRRIGATION PONDS  =           0.0000
           GW IRRIGATION =           0.0000             GW IRRIGATION =           0.0000
           SW IRRIGATION =           0.0000             SW IRRIGATION =           0.0000
        SYSTEM LOSSES GW =           0.0000          SYSTEM LOSSES GW =           0.0000
        SYSTEM LOSSES SW =           0.0000          SYSTEM LOSSES SW =           0.0000

                TOTAL IN =  5966545408.0000                  TOTAL IN =           0.0000

          OUT:                                     OUT:
          ----                                     ----
               AG WELLS  =           0.0000                 AG WELLS  =           0.0000
      DIVERSION SEGMENTS =           0.0000        DIVERSION SEGMENTS =           0.0000
       IRRIGATION PONDS  =           0.0000         IRRIGATION PONDS  =           0.0000
           GW IRRIGATION =  5381544960.0000             GW IRRIGATION =           0.0000
           SW IRRIGATION =   585012352.0000             SW IRRIGATION =           0.0000
        SYSTEM LOSSES GW =           0.0000          SYSTEM LOSSES GW =           0.0000
        SYSTEM LOSSES SW =           0.0000          SYSTEM LOSSES SW =           0.0000

               TOTAL OUT =  5966557184.0000                 TOTAL OUT =           0.0000

                IN - OUT =      -11776.0000                  IN - OUT =           0.0000

     PERCENT DISCREPANCY =          -0.00         PERCENT DISCREPANCY =           0.00



1
  VOLUMETRIC BUDGET FOR ENTIRE MODEL AT END OF TIME STEP   30, STRESS PERIOD  27
  ------------------------------------------------------------------------------

     CUMULATIVE VOLUMES      L**3       RATES FOR THIS TIME STEP      L**3/T
     ------------------                 ------------------------

           IN:                                      IN:
           ---                                      ---
             STORAGE     =  4803349504.0000               STORAGE     =           1.4637
       CONSTANT HEAD     =           0.0000         CONSTANT HEAD     =           0.0000
     HEAD DEP BOUNDS     =    19592218.0000       HEAD DEP BOUNDS     =           0.2873
      STREAM LEAKAGE     =   831111360.0000        STREAM LEAKAGE     =          12.6496
        UZF RECHARGE     =  4769157120.0000          UZF RECHARGE     =           6.5321
               GW ET     =           0.0000                 GW ET     =           0.0000
     SURFACE LEAKAGE     =           0.0000       SURFACE LEAKAGE     =           0.0000
           AG WELLS      =           0.0000             AG WELLS      =           0.0000

                TOTAL IN = 10423209984.0000                  TOTAL IN =          20.9327

          OUT:                                     OUT:
          ----                                     ----
             STORAGE     =  4311036928.0000               STORAGE     =          10.9834
       CONSTANT HEAD     =           0.0000         CONSTANT HEAD     =           0.0000
     HEAD DEP BOUNDS     =    19881980.0000       HEAD DEP BOUNDS     =           0.2905
      STREAM LEAKAGE     =   709337728.0000        STREAM LEAKAGE     =           9.6558
        UZF RECHARGE     =           0.0000          UZF RECHARGE     =           0.0000
               GW ET     =     1320838.1250                 GW ET     =           0.0000
     SURFACE LEAKAGE     =           0.0000       SURFACE LEAKAGE     =           0.0000
           AG WELLS      =  5381544960.0000             AG WELLS      =           0.0000

               TOTAL OUT = 10423121920.0000                 TOTAL OUT =          20.9296

                IN - OUT =       88064.0000                  IN - OUT =       3.0785E-03

     PERCENT DISCREPANCY =           0.00         PERCENT DISCREPANCY =           0.01






         TIME SUMMARY AT END OF TIME STEP   30 IN STRESS PERIOD   27
                    SECONDS     MINUTES      HOURS       DAYS        YEARS
                    -----------------------------------------------------------
   TIME STEP LENGTH  87667.      1461.1      24.352      1.0147     2.77799E-03
 STRESS PERIOD TIME 2.63000E+06  43833.      730.56      30.440     8.33397E-02
         TOTAL TIME 6.84668E+07 1.14111E+06  19019.      792.44      2.1696    
1
1
                            STRESS PERIOD NO.   28, LENGTH =   2630000.    
                            -----------------------------------------------

                              NUMBER OF TIME STEPS =    30

                               MULTIPLIER FOR DELT =     1.000

                            INITIAL TIME STEP SIZE =   87666.66    

 REUSING NON-PARAMETER GHB CELLS FROM LAST STRESS PERIOD

      2 GHB CELLS

 REUSING STREAM SEGMENT DATA FROM LAST STRESS PERIOD



            AREAL INFILTRATION RATE
 READING ON UNIT   19 WITH FORMAT: (FREE)              

            1           2           3           4           5           6           7           8           9          10
 ........................................................................................................................
   1   1.0000E-10  2.0000E-10   0.000       0.000       0.000       0.000       0.000       0.000       0.000       0.000    
   2   2.0000E-10  1.0000E-10  2.0000E-10   0.000       0.000      8.0000E-10  8.0000E-10  5.0000E-10   0.000       0.000    
   3    0.000      5.0000E-10  1.0000E-10  1.0000E-10  8.0000E-10  8.0000E-10  5.0000E-10  5.0000E-10   0.000       0.000    
   4   8.0000E-10  5.0000E-10  1.0000E-10  1.0000E-10  1.0000E-10  1.0000E-10  1.0000E-10  1.0000E-10  2.0000E-10   0.000    
   5   8.0000E-10  5.0000E-10  1.0000E-10  1.0000E-10  1.0000E-10  1.0000E-10  1.0000E-10  1.0000E-10  1.0000E-10  1.0000E-10
   6   8.0000E-10  5.0000E-10  5.0000E-10  2.0000E-10  2.0000E-10  1.0000E-10  1.0000E-10  1.0000E-10  1.0000E-10  5.0000E-10
   7   8.0000E-10  5.0000E-10  5.0000E-10  2.0000E-10  2.0000E-10  1.0000E-10  1.0000E-10  2.0000E-10  2.0000E-10   0.000    
   8    0.000      5.0000E-10  5.0000E-10  2.0000E-10  2.0000E-10  1.0000E-10  1.0000E-10  2.0000E-10  5.0000E-10   0.000    
   9    0.000      5.0000E-10  5.0000E-10  2.0000E-10  2.0000E-10  1.0000E-10  1.0000E-10  2.0000E-10  5.0000E-10   0.000    
  10    0.000      5.0000E-10  5.0000E-10  2.0000E-10  2.0000E-10  1.0000E-10  1.0000E-10  2.0000E-10  5.0000E-10  8.0000E-10
  11    0.000      1.0000E-10  1.0000E-10  1.0000E-10  1.0000E-10  1.0000E-10  1.0000E-10  2.0000E-10  5.0000E-10   0.000    
  12   1.0000E-10  1.0000E-10  1.0000E-10  1.0000E-10  1.0000E-10  1.0000E-10  1.0000E-10  1.0000E-10  2.0000E-10   0.000    
  13   1.0000E-10  1.0000E-10  2.0000E-10  2.0000E-10  2.0000E-10  2.0000E-10  2.0000E-10  1.0000E-10  1.0000E-10   0.000    
  14    0.000      2.0000E-10  5.0000E-10  5.0000E-10  5.0000E-10  5.0000E-10  5.0000E-10  2.0000E-10  1.0000E-10   0.000    
  15    0.000       0.000      8.0000E-10  8.0000E-10  8.0000E-10  8.0000E-10   0.000       0.000       0.000       0.000    

                  ET RATE =  5.000000E-10

 USING ET EXTINCTION DEPTH FROM PREVIOUS STRESS PERIOD. CURRENT PERIOD IS:      28

 USING EXTINCTION WATER CONTENT FROM PREVIOUS STRESS PERIOD. CURRENT PERIOD IS:      28

 USING AIR ENTRY PRESSURE FROM PREVIOUS STRESS PERIOD. CURRENT PERIOD IS:      28

 USING ROOT PRESSURE HEAD FROM PREVIOUS STRESS PERIOD. CURRENT PERIOD IS:      28

 USING ROOT ACTIVITY FROM PREVIOUS STRESS PERIOD. CURRENT PERIOD IS:      28

 PROCESSING AG STRESS PERIOD DATA

 READING AG STRESS PERIOD DATA

 READING IRRIGATION SEGMENT

 READING IRRIGATION WELL

 READING SUPPLEMENTAL WELL

 NO IRRPOND OR REUSING IRRPOND DATA FROM LAST STRESS PERIOD

 END PROCESSING AG STRESS PERIOD DATA OPTIONS
 
 SOLVING FOR HEAD 
                                                   Max.-Head-Change                         Max.-Flux-Residual
  Residual-Control   Outer-Iter.   Inner-Iter.     Column Row Layer    Maximum-Head-Change  Column Row Layer    Maximum-Flux-Residual          L2-NORM 
          0                 1           2             3    8     1       0.7624949000E-02       4   13    1         0.4131472337E+00      0.1782772998E+01
          0                 2           2             3    8     1      -0.7366050598E-03       4   13    1        -0.4086539450E-01      0.1869403748E+00
          0                 3           2             5    8     1       0.1698958207E-03       5    8    1         0.9116348281E-02      0.2079980239E-01
          0                 4           1             5    8     1       0.4648663521E-04       5    8    1         0.2512398165E-02      0.4729618219E-02

    ------------------------------------------------
       NWT REQUIRED            4 OUTER ITERATIONS 
       AND A TOTAL OF          7 INNER ITERATIONS.
    ------------------------------------------------

 NO OUTPUT CONTROL FOR STRESS PERIOD   28   TIME STEP    1
 
 SOLVING FOR HEAD 
                                                   Max.-Head-Change                         Max.-Flux-Residual
  Residual-Control   Outer-Iter.   Inner-Iter.     Column Row Layer    Maximum-Head-Change  Column Row Layer    Maximum-Flux-Residual          L2-NORM 
          0                 1           2             4   13     1       0.1057956645E-01       4   13    1         0.6072817393E+00      0.1975729473E+01
          0                 2           2             4   13     1      -0.1017671883E-02       4   13    1        -0.6006043948E-01      0.2050122518E+00
          0                 3           2             5    8     1       0.1727793949E-03       5    8    1         0.9267401629E-02      0.2192890182E-01
          0                 4           1             5    8     1       0.4730029445E-04       5    8    1         0.2555402097E-02      0.4875537517E-02

    ------------------------------------------------
       NWT REQUIRED            4 OUTER ITERATIONS 
       AND A TOTAL OF          7 INNER ITERATIONS.
    ------------------------------------------------

 NO OUTPUT CONTROL FOR STRESS PERIOD   28   TIME STEP    2
 
 SOLVING FOR HEAD 
                                                   Max.-Head-Change                         Max.-Flux-Residual
  Residual-Control   Outer-Iter.   Inner-Iter.     Column Row Layer    Maximum-Head-Change  Column Row Layer    Maximum-Flux-Residual          L2-NORM 
          0                 1           2             4   13     1       0.9589166426E-02       4   13    1         0.5499584283E+00      0.1928801268E+01
          0                 2           2             4   13     1      -0.9223352729E-03       4   13    1        -0.5438661830E-01      0.2012330508E+00
          0                 3           2             5    8     1       0.1755328661E-03       5    8    1         0.9412937319E-02      0.2213469265E-01
          0                 4           1             5    8     1       0.4807789444E-04       5    8    1         0.2596418302E-02      0.5011288388E-02

    ------------------------------------------------
       NWT REQUIRED            4 OUTER ITERATIONS 
       AND A TOTAL OF          7 INNER ITERATIONS.
    ------------------------------------------------

 NO OUTPUT CONTROL FOR STRESS PERIOD   28   TIME STEP    3
 
 SOLVING FOR HEAD 
                                                   Max.-Head-Change                         Max.-Flux-Residual
  Residual-Control   Outer-Iter.   Inner-Iter.     Column Row Layer    Maximum-Head-Change  Column Row Layer    Maximum-Flux-Residual          L2-NORM 
          0                 1           2             4   13     1       0.8699373972E-02       4   13    1         0.4984755759E+00      0.1887921780E+01
          0                 2           2             4   13     1      -0.8366580640E-03       4   13    1        -0.4928939341E-01      0.1980264576E+00
          0                 3           2             5    8     1       0.1781634678E-03       5    8    1         0.9551900373E-02      0.2236391952E-01
          0                 4           1             5    8     1       0.4882135827E-04       5    8    1         0.2635612273E-02      0.5143333663E-02

    ------------------------------------------------
       NWT REQUIRED            4 OUTER ITERATIONS 
       AND A TOTAL OF          7 INNER ITERATIONS.
    ------------------------------------------------

 NO OUTPUT CONTROL FOR STRESS PERIOD   28   TIME STEP    4
 
 SOLVING FOR HEAD 
                                                   Max.-Head-Change                         Max.-Flux-Residual
  Residual-Control   Outer-Iter.   Inner-Iter.     Column Row Layer    Maximum-Head-Change  Column Row Layer    Maximum-Flux-Residual          L2-NORM 
          0                 1           2             4   13     1       0.7899776378E-02       4   13    1         0.4522272639E+00      0.1852256800E+01
          0                 2           2             4   13     1      -0.7596836172E-03       4   13    1        -0.4471153173E-01      0.1953095433E+00
          0                 3           2             5    8     1       0.1806956250E-03       5    8    1         0.9685672255E-02      0.2261043700E-01
          0                 4           1             5    8     1       0.4953695923E-04       5    8    1         0.2673338664E-02      0.5271816087E-02

    ------------------------------------------------
       NWT REQUIRED            4 OUTER ITERATIONS 
       AND A TOTAL OF          7 INNER ITERATIONS.
    ------------------------------------------------

 NO OUTPUT CONTROL FOR STRESS PERIOD   28   TIME STEP    5
 
 SOLVING FOR HEAD 
                                                   Max.-Head-Change                         Max.-Flux-Residual
  Residual-Control   Outer-Iter.   Inner-Iter.     Column Row Layer    Maximum-Head-Change  Column Row Layer    Maximum-Flux-Residual          L2-NORM 
          0                 1           2             3    8     1       0.7319005892E-02       4   13    1         0.4106643274E+00      0.1821089083E+01
          0                 2           2             3    8     1      -0.7061055606E-03       4   13    1        -0.4059727792E-01      0.1930137437E+00
          0                 3           2             5    8     1       0.1831181906E-03       5    8    1         0.9813550287E-02      0.2287079337E-01
          0                 4           1             5    8     1       0.5022232576E-04       5    8    1         0.2709442944E-02      0.5396886767E-02

    ------------------------------------------------
       NWT REQUIRED            4 OUTER ITERATIONS 
       AND A TOTAL OF          7 INNER ITERATIONS.
    ------------------------------------------------

 NO OUTPUT CONTROL FOR STRESS PERIOD   28   TIME STEP    6
 
 SOLVING FOR HEAD 
                                                   Max.-Head-Change                         Max.-Flux-Residual
  Residual-Control   Outer-Iter.   Inner-Iter.     Column Row Layer    Maximum-Head-Change  Column Row Layer    Maximum-Flux-Residual          L2-NORM 
          0                 1           2             3    8     1       0.7262180655E-02       2   13    1         0.3751550341E+00      0.1793805843E+01
          0                 2           2             3    8     1      -0.7004431652E-03       5    4    1        -0.3751490498E-01      0.1910746775E+00
          0                 3           2             5    8     1       0.1854316430E-03       5    8    1         0.9935653002E-02      0.2313884173E-01
          0                 4           1             5    8     1       0.5087697316E-04       5    8    1         0.2743922886E-02      0.5517980023E-02

    ------------------------------------------------
       NWT REQUIRED            4 OUTER ITERATIONS 
       AND A TOTAL OF          7 INNER ITERATIONS.
    ------------------------------------------------

 NO OUTPUT CONTROL FOR STRESS PERIOD   28   TIME STEP    7
 
 SOLVING FOR HEAD 
                                                   Max.-Head-Change                         Max.-Flux-Residual
  Residual-Control   Outer-Iter.   Inner-Iter.     Column Row Layer    Maximum-Head-Change  Column Row Layer    Maximum-Flux-Residual          L2-NORM 
          0                 1           2             3    8     1       0.7206911049E-02       5    4    1         0.3718789028E+00      0.1769850746E+01
          0                 2           2             3    8     1      -0.6949348527E-03       5    8    1         0.3782004674E-01      0.1894424066E+00
          0                 3           2             5    8     1       0.1876676384E-03       5    8    1         0.1005361789E-01      0.2341436552E-01
          0                 4           1             5    8     1       0.5151003222E-04       5    8    1         0.2777253348E-02      0.5635993255E-02

    ------------------------------------------------
       NWT REQUIRED            4 OUTER ITERATIONS 
       AND A TOTAL OF          7 INNER ITERATIONS.
    ------------------------------------------------

 NO OUTPUT CONTROL FOR STRESS PERIOD   28   TIME STEP    8
 
 SOLVING FOR HEAD 
                                                   Max.-Head-Change                         Max.-Flux-Residual
  Residual-Control   Outer-Iter.   Inner-Iter.     Column Row Layer    Maximum-Head-Change  Column Row Layer    Maximum-Flux-Residual          L2-NORM 
          0                 1           2             3    8     1       0.7152728280E-02       5    4    1         0.3687501700E+00      0.1748758680E+01
          0                 2           2             5    8     1       0.6919327251E-03       5    8    1         0.3821366811E-01      0.1880674367E+00
          0                 3           2             5    8     1       0.1898050917E-03       5    8    1         0.1016635918E-01      0.2369177813E-01
          0                 4           1             5    8     1       0.5211539474E-04       5    8    1         0.2809117629E-02      0.5750147321E-02

    ------------------------------------------------
       NWT REQUIRED            4 OUTER ITERATIONS 
       AND A TOTAL OF          7 INNER ITERATIONS.
    ------------------------------------------------

 NO OUTPUT CONTROL FOR STRESS PERIOD   28   TIME STEP    9
 
 SOLVING FOR HEAD 
                                                   Max.-Head-Change                         Max.-Flux-Residual
  Residual-Control   Outer-Iter.   Inner-Iter.     Column Row Layer    Maximum-Head-Change  Column Row Layer    Maximum-Flux-Residual          L2-NORM 
          0                 1           2             3    8     1       0.7100020665E-02       5    4    1         0.3657544558E+00      0.1730133756E+01
          0                 2           2             5    8     1       0.6991462032E-03       5    8    1         0.3858981482E-01      0.1869138306E+00
          0                 3           2             5    8     1       0.1918504250E-03       5    8    1         0.1027419130E-01      0.2397092500E-01
          0                 4           1             5    8     1       0.5269503909E-04       5    8    1         0.2839613820E-02      0.5861075630E-02

    ------------------------------------------------
       NWT REQUIRED            4 OUTER ITERATIONS 
       AND A TOTAL OF          7 INNER ITERATIONS.
    ------------------------------------------------

 NO OUTPUT CONTROL FOR STRESS PERIOD   28   TIME STEP   10
 
 SOLVING FOR HEAD 
                                                   Max.-Head-Change                         Max.-Flux-Residual
  Residual-Control   Outer-Iter.   Inner-Iter.     Column Row Layer    Maximum-Head-Change  Column Row Layer    Maximum-Flux-Residual          L2-NORM 
          0                 1           2             3    8     1       0.7048534054E-02       5    4    1         0.3628714081E+00      0.1713606934E+01
          0                 2           2             5    8     1       0.7061257112E-03       5    8    1         0.3895369448E-01      0.1859480502E+00
          0                 3           2             5    8     1       0.1938297580E-03       5    8    1         0.1037853205E-01      0.2425121436E-01
          0                 4           1             5    8     1       0.5325606767E-04       5    8    1         0.2869127206E-02      0.5968943044E-02

    ------------------------------------------------
       NWT REQUIRED            4 OUTER ITERATIONS 
       AND A TOTAL OF          7 INNER ITERATIONS.
    ------------------------------------------------

 NO OUTPUT CONTROL FOR STRESS PERIOD   28   TIME STEP   11
 
 SOLVING FOR HEAD 
                                                   Max.-Head-Change                         Max.-Flux-Residual
  Residual-Control   Outer-Iter.   Inner-Iter.     Column Row Layer    Maximum-Head-Change  Column Row Layer    Maximum-Flux-Residual          L2-NORM 
          0                 1           2             3    8     1       0.6998236019E-02       5    4    1         0.3600943148E+00      0.1698891884E+01
          0                 2           2             5    8     1       0.7128014115E-03       5    8    1         0.3930156465E-01      0.1851388986E+00
          0                 3           2             5    8     1       0.1957238457E-03       5    8    1         0.1047834691E-01      0.2452857306E-01
          0                 4           1             5    8     1       0.5379317388E-04       5    8    1         0.2897372872E-02      0.6073392580E-02

    ------------------------------------------------
       NWT REQUIRED            4 OUTER ITERATIONS 
       AND A TOTAL OF          7 INNER ITERATIONS.
    ------------------------------------------------

 NO OUTPUT CONTROL FOR STRESS PERIOD   28   TIME STEP   12
 
 SOLVING FOR HEAD 
                                                   Max.-Head-Change                         Max.-Flux-Residual
  Residual-Control   Outer-Iter.   Inner-Iter.     Column Row Layer    Maximum-Head-Change  Column Row Layer    Maximum-Flux-Residual          L2-NORM 
          0                 1           2             3    8     1       0.6949087016E-02       5    4    1         0.3574434804E+00      0.1685734910E+01
          0                 2           2             5    8     1       0.7191912495E-03       5    8    1         0.3963431308E-01      0.1844653364E+00
          0                 3           2             5    8     1       0.1975381322E-03       5    8    1         0.1057390897E-01      0.2480371037E-01
          0                 4           1             5    8     1       0.5430799470E-04       5    8    1         0.2924433396E-02      0.6174774177E-02

    ------------------------------------------------
       NWT REQUIRED            4 OUTER ITERATIONS 
       AND A TOTAL OF          7 INNER ITERATIONS.
    ------------------------------------------------

 NO OUTPUT CONTROL FOR STRESS PERIOD   28   TIME STEP   13
 
 SOLVING FOR HEAD 
                                                   Max.-Head-Change                         Max.-Flux-Residual
  Residual-Control   Outer-Iter.   Inner-Iter.     Column Row Layer    Maximum-Head-Change  Column Row Layer    Maximum-Flux-Residual          L2-NORM 
          0                 1           2             3    8     1       0.6901267026E-02       5    4    1         0.3548858983E+00      0.1673913004E+01
          0                 2           2             5    8     1       0.7253090594E-03       5    8    1         0.3995267313E-01      0.1839045743E+00
          0                 3           2             5    8     1       0.1992763262E-03       5    8    1         0.1066542336E-01      0.2507563779E-01
          0                 4           1             5    8     1       0.5480152457E-04       5    8    1         0.2950363156E-02      0.6273081137E-02

    ------------------------------------------------
       NWT REQUIRED            4 OUTER ITERATIONS 
       AND A TOTAL OF          7 INNER ITERATIONS.
    ------------------------------------------------

 NO OUTPUT CONTROL FOR STRESS PERIOD   28   TIME STEP   14
 
 SOLVING FOR HEAD 
                                                   Max.-Head-Change                         Max.-Flux-Residual
  Residual-Control   Outer-Iter.   Inner-Iter.     Column Row Layer    Maximum-Head-Change  Column Row Layer    Maximum-Flux-Residual          L2-NORM 
          0                 1           2             3    8     1       0.6854525874E-02       5    4    1         0.3524166333E+00      0.1663236106E+01
          0                 2           2             5    8     1       0.7312466858E-03       5    8    1         0.4026172660E-01      0.1834394083E+00
          0                 3           2             5    8     1       0.2009630085E-03       5    8    1         0.1075423619E-01      0.2534308224E-01
          0                 4           1             5    8     1       0.5528034465E-04       5    8    1         0.2975523391E-02      0.6368374861E-02

    ------------------------------------------------
       NWT REQUIRED            4 OUTER ITERATIONS 
       AND A TOTAL OF          7 INNER ITERATIONS.
    ------------------------------------------------

 NO OUTPUT CONTROL FOR STRESS PERIOD   28   TIME STEP   15
 
 SOLVING FOR HEAD 
                                                   Max.-Head-Change                         Max.-Flux-Residual
  Residual-Control   Outer-Iter.   Inner-Iter.     Column Row Layer    Maximum-Head-Change  Column Row Layer    Maximum-Flux-Residual          L2-NORM 
          0                 1           2             3    8     1       0.6808830755E-02       5    4    1         0.3500435942E+00      0.1653562226E+01
          0                 2           2             5    8     1       0.7369332850E-03       5    8    1         0.4055750217E-01      0.1830572905E+00
          0                 3           2             5    8     1       0.2025794764E-03       5    8    1         0.1083931379E-01      0.2560652221E-01
          0                 4           1             5    8     1       0.5573952127E-04       5    8    1         0.2999640202E-02      0.6460951584E-02

    ------------------------------------------------
       NWT REQUIRED            4 OUTER ITERATIONS 
       AND A TOTAL OF          7 INNER ITERATIONS.
    ------------------------------------------------

 NO OUTPUT CONTROL FOR STRESS PERIOD   28   TIME STEP   16
 
 SOLVING FOR HEAD 
                                                   Max.-Head-Change                         Max.-Flux-Residual
  Residual-Control   Outer-Iter.   Inner-Iter.     Column Row Layer    Maximum-Head-Change  Column Row Layer    Maximum-Flux-Residual          L2-NORM 
          0                 1           2             3    8     1       0.6764151143E-02       5    4    1         0.3477618176E+00      0.1644739040E+01
          0                 2           2             5    8     1       0.7423795570E-03       5    8    1         0.4084065264E-01      0.1827409732E+00
          0                 3           2             5    8     1       0.2041282591E-03       5    8    1         0.1092080737E-01      0.2586343405E-01
          0                 4           1             5    8     1       0.5617963492E-04       5    8    1         0.3022749519E-02      0.6550233975E-02

    ------------------------------------------------
       NWT REQUIRED            4 OUTER ITERATIONS 
       AND A TOTAL OF          7 INNER ITERATIONS.
    ------------------------------------------------

 NO OUTPUT CONTROL FOR STRESS PERIOD   28   TIME STEP   17
 
 SOLVING FOR HEAD 
                                                   Max.-Head-Change                         Max.-Flux-Residual
  Residual-Control   Outer-Iter.   Inner-Iter.     Column Row Layer    Maximum-Head-Change  Column Row Layer    Maximum-Flux-Residual          L2-NORM 
          0                 1           2             3    8     1       0.6720666829E-02       5    4    1         0.3455665185E+00      0.1636657730E+01
          0                 2           2             5    8     1       0.7476739966E-03       5    8    1         0.4111592643E-01      0.1824858026E+00
          0                 3           2             5    8     1       0.2056335569E-03       5    8    1         0.1100002643E-01      0.2611676672E-01
          0                 4           1             5    8     1       0.5660731730E-04       5    8    1         0.3045208746E-02      0.6637368582E-02

    ------------------------------------------------
       NWT REQUIRED            4 OUTER ITERATIONS 
       AND A TOTAL OF          7 INNER ITERATIONS.
    ------------------------------------------------

 NO OUTPUT CONTROL FOR STRESS PERIOD   28   TIME STEP   18
 
 SOLVING FOR HEAD 
                                                   Max.-Head-Change                         Max.-Flux-Residual
  Residual-Control   Outer-Iter.   Inner-Iter.     Column Row Layer    Maximum-Head-Change  Column Row Layer    Maximum-Flux-Residual          L2-NORM 
          0                 1           2             3    8     1       0.6678345409E-02       5    4    1         0.3434399056E+00      0.1629218533E+01
          0                 2           2             5    8     1       0.7526711255E-03       5    8    1         0.4137536034E-01      0.1822775850E+00
          0                 3           2             5    8     1       0.2070567157E-03       5    8    1         0.1107483411E-01      0.2636357803E-01
          0                 4           1             5    8     1       0.5701228359E-04       5    8    1         0.3066451437E-02      0.6721501742E-02

    ------------------------------------------------
       NWT REQUIRED            4 OUTER ITERATIONS 
       AND A TOTAL OF          7 INNER ITERATIONS.
    ------------------------------------------------

 NO OUTPUT CONTROL FOR STRESS PERIOD   28   TIME STEP   19
 
 SOLVING FOR HEAD 
                                                   Max.-Head-Change                         Max.-Flux-Residual
  Residual-Control   Outer-Iter.   Inner-Iter.     Column Row Layer    Maximum-Head-Change  Column Row Layer    Maximum-Flux-Residual          L2-NORM 
          0                 1           2             3    8     1       0.6636729059E-02       5    4    1         0.3413914916E+00      0.1622345621E+01
          0                 2           2             5    8     1       0.7575401550E-03       5    8    1         0.4162819389E-01      0.1821129532E+00
          0                 3           2             5    8     1       0.2084428634E-03       5    8    1         0.1114771831E-01      0.2660550307E-01
          0                 4           1             5    8     1       0.5740658090E-04       5    8    1         0.3087139613E-02      0.6803332157E-02

    ------------------------------------------------
       NWT REQUIRED            4 OUTER ITERATIONS 
       AND A TOTAL OF          7 INNER ITERATIONS.
    ------------------------------------------------

 NO OUTPUT CONTROL FOR STRESS PERIOD   28   TIME STEP   20
 
 SOLVING FOR HEAD 
                                                   Max.-Head-Change                         Max.-Flux-Residual
  Residual-Control   Outer-Iter.   Inner-Iter.     Column Row Layer    Maximum-Head-Change  Column Row Layer    Maximum-Flux-Residual          L2-NORM 
          0                 1           2             5    8     1      -0.7002603153E-02       5    8    1        -0.3995533082E+00      0.1658672363E+01
          0                 2           2             5    8     1      -0.1352058101E-02       5    8    1        -0.7487644766E-01      0.1911669730E+00
          0                 3           2             5    8     1      -0.2592880107E-03       5    8    1        -0.1465705946E-01      0.2743491046E-01
          0                 4           1             5    6     1       0.5522330608E-04       5    6    1         0.2981978431E-02      0.6299189580E-02

    ------------------------------------------------
       NWT REQUIRED            4 OUTER ITERATIONS 
       AND A TOTAL OF          7 INNER ITERATIONS.
    ------------------------------------------------

 NO OUTPUT CONTROL FOR STRESS PERIOD   28   TIME STEP   21
 
 SOLVING FOR HEAD 
                                                   Max.-Head-Change                         Max.-Flux-Residual
  Residual-Control   Outer-Iter.   Inner-Iter.     Column Row Layer    Maximum-Head-Change  Column Row Layer    Maximum-Flux-Residual          L2-NORM 
          0                 1           2             5    8     1      -0.1133478625E-01       5    8    1        -0.6383334887E+00      0.1721054570E+01
          0                 2           2             5    8     1      -0.2207001858E-02       5    8    1        -0.1220397855E+00      0.2123530384E+00
          0                 3           2             5    8     1      -0.4043635045E-03       5    8    1        -0.2263163758E-01      0.3180615637E-01
          0                 4           1             5    6     1       0.5510509910E-04       5    6    1         0.2979740853E-02      0.5825678992E-02

    ------------------------------------------------
       NWT REQUIRED            4 OUTER ITERATIONS 
       AND A TOTAL OF          7 INNER ITERATIONS.
    ------------------------------------------------

 NO OUTPUT CONTROL FOR STRESS PERIOD   28   TIME STEP   22
 
 SOLVING FOR HEAD 
                                                   Max.-Head-Change                         Max.-Flux-Residual
  Residual-Control   Outer-Iter.   Inner-Iter.     Column Row Layer    Maximum-Head-Change  Column Row Layer    Maximum-Flux-Residual          L2-NORM 
          0                 1           2             5    8     1      -0.1032375234E-01       5    8    1        -0.5815979573E+00      0.1688576973E+01
          0                 2           2             5    8     1      -0.2044421363E-02       5    8    1        -0.1126667314E+00      0.2056935891E+00
          0                 3           2             5    8     1      -0.3988618891E-03       5    8    1        -0.2223356553E-01      0.3131296229E-01
          0                 4           1             5    8     1      -0.7749162318E-04       5    8    1        -0.4319894687E-02      0.6838643421E-02

    ------------------------------------------------
       NWT REQUIRED            4 OUTER ITERATIONS 
       AND A TOTAL OF          7 INNER ITERATIONS.
    ------------------------------------------------

 NO OUTPUT CONTROL FOR STRESS PERIOD   28   TIME STEP   23
 
 SOLVING FOR HEAD 
                                                   Max.-Head-Change                         Max.-Flux-Residual
  Residual-Control   Outer-Iter.   Inner-Iter.     Column Row Layer    Maximum-Head-Change  Column Row Layer    Maximum-Flux-Residual          L2-NORM 
          0                 1           2             5    8     1      -0.9198763266E-02       5    8    1        -0.5171561188E+00      0.1656271172E+01
          0                 2           2             5    8     1      -0.1799527008E-02       5    8    1        -0.9912964372E-01      0.1971154018E+00
          0                 3           2             5    8     1      -0.3509882769E-03       5    8    1        -0.1957281031E-01      0.2918979078E-01
          0                 4           1             5    8     1      -0.6815819536E-04       5    8    1        -0.3800831951E-02      0.6441072367E-02

    ------------------------------------------------
       NWT REQUIRED            4 OUTER ITERATIONS 
       AND A TOTAL OF          7 INNER ITERATIONS.
    ------------------------------------------------

 NO OUTPUT CONTROL FOR STRESS PERIOD   28   TIME STEP   24
 
 SOLVING FOR HEAD 
                                                   Max.-Head-Change                         Max.-Flux-Residual
  Residual-Control   Outer-Iter.   Inner-Iter.     Column Row Layer    Maximum-Head-Change  Column Row Layer    Maximum-Flux-Residual          L2-NORM 
          0                 1           2             5    8     1      -0.8284532577E-02       5    8    1        -0.4661811584E+00      0.1630813023E+01
          0                 2           2             5    8     1      -0.1620364539E-02       5    8    1        -0.8923515981E-01      0.1911348670E+00
          0                 3           2             5    8     1      -0.3159380855E-03       5    8    1        -0.1762547105E-01      0.2773060686E-01
          0                 4           1             5    8     1      -0.6131755778E-04       5    8    1        -0.3420713101E-02      0.6174054994E-02

    ------------------------------------------------
       NWT REQUIRED            4 OUTER ITERATIONS 
       AND A TOTAL OF          7 INNER ITERATIONS.
    ------------------------------------------------

 NO OUTPUT CONTROL FOR STRESS PERIOD   28   TIME STEP   25
 
 SOLVING FOR HEAD 
                                                   Max.-Head-Change                         Max.-Flux-Residual
  Residual-Control   Outer-Iter.   Inner-Iter.     Column Row Layer    Maximum-Head-Change  Column Row Layer    Maximum-Flux-Residual          L2-NORM 
          0                 1           2             5    8     1      -0.7452307680E-02       5    8    1        -0.4198156048E+00      0.1608618036E+01
          0                 2           2             5    8     1      -0.1457128250E-02       5    8    1        -0.8022451052E-01      0.1860226255E+00
          0                 3           2             5    8     1      -0.2839649969E-03       5    8    1        -0.1585076038E-01      0.2648177609E-01
          0                 4           1             5    8     1      -0.5506713674E-04       5    8    1        -0.3073805000E-02      0.5949308881E-02

    ------------------------------------------------
       NWT REQUIRED            4 OUTER ITERATIONS 
       AND A TOTAL OF          7 INNER ITERATIONS.
    ------------------------------------------------

 NO OUTPUT CONTROL FOR STRESS PERIOD   28   TIME STEP   26
 
 SOLVING FOR HEAD 
                                                   Max.-Head-Change                         Max.-Flux-Residual
  Residual-Control   Outer-Iter.   Inner-Iter.     Column Row Layer    Maximum-Head-Change  Column Row Layer    Maximum-Flux-Residual          L2-NORM 
          0                 1           2             5    8     1      -0.6694252604E-02       5    8    1        -0.3776166197E+00      0.1589174531E+01
          0                 2           2             5    8     1      -0.1308305441E-02       5    8    1        -0.7201348028E-01      0.1816576788E+00
          0                 3           2             5    8     1      -0.2547791276E-03       5    8    1        -0.1423231141E-01      0.2541988384E-01
          0                 4           1             5    6     1       0.5440867290E-04       5    6    1         0.2950166320E-02      0.5761868202E-02

    ------------------------------------------------
       NWT REQUIRED            4 OUTER ITERATIONS 
       AND A TOTAL OF          7 INNER ITERATIONS.
    ------------------------------------------------

 NO OUTPUT CONTROL FOR STRESS PERIOD   28   TIME STEP   27
 
 SOLVING FOR HEAD 
                                                   Max.-Head-Change                         Max.-Flux-Residual
  Residual-Control   Outer-Iter.   Inner-Iter.     Column Row Layer    Maximum-Head-Change  Column Row Layer    Maximum-Flux-Residual          L2-NORM 
          0                 1           2             5    4     1       0.6269926363E-02       5    8    1        -0.3391580761E+00      0.1572052671E+01
          0                 2           2             5    8     1      -0.1172443820E-02       5    8    1        -0.6452109344E-01      0.1779297763E+00
          0                 3           2             5    8     1      -0.2281029270E-03       5    8    1        -0.1275442275E-01      0.2452112530E-01
          0                 4           1             5    6     1       0.5425598936E-04       5    6    1         0.2942068359E-02      0.5606479471E-02

    ------------------------------------------------
       NWT REQUIRED            4 OUTER ITERATIONS 
       AND A TOTAL OF          7 INNER ITERATIONS.
    ------------------------------------------------

 NO OUTPUT CONTROL FOR STRESS PERIOD   28   TIME STEP   28
 
 SOLVING FOR HEAD 
                                                   Max.-Head-Change                         Max.-Flux-Residual
  Residual-Control   Outer-Iter.   Inner-Iter.     Column Row Layer    Maximum-Head-Change  Column Row Layer    Maximum-Flux-Residual          L2-NORM 
          0                 1           2             5    4     1       0.6241334875E-02       5    4    1         0.3257210649E+00      0.1556881555E+01
          0                 2           2             5    8     1      -0.1048298980E-02       5    8    1        -0.5767812251E-01      0.1747453601E+00
          0                 3           2             5    8     1      -0.2036975028E-03       5    8    1        -0.1140362479E-01      0.2376602482E-01
          0                 4           1             5    6     1       0.5411359739E-04       5    6    1         0.2934307137E-02      0.5479141525E-02

    ------------------------------------------------
       NWT REQUIRED            4 OUTER ITERATIONS 
       AND A TOTAL OF          7 INNER ITERATIONS.
    ------------------------------------------------

 NO OUTPUT CONTROL FOR STRESS PERIOD   28   TIME STEP   29
 
 SOLVING FOR HEAD 
                                                   Max.-Head-Change                         Max.-Flux-Residual
  Residual-Control   Outer-Iter.   Inner-Iter.     Column Row Layer    Maximum-Head-Change  Column Row Layer    Maximum-Flux-Residual          L2-NORM 
          0                 1           2             5    4     1       0.6213337903E-02       5    4    1         0.3242254949E+00      0.1543358478E+01
          0                 2           2             5    8     1      -0.9347035420E-03       5    8    1        -0.5141958366E-01      0.1720235394E+00
          0                 3           2             5    6     1       0.1982307637E-03       5    6    1         0.1068373191E-01      0.2313587982E-01
          0                 4           1             5    6     1       0.5399029590E-04       5    6    1         0.2927411997E-02      0.5375943411E-02

    ------------------------------------------------
       NWT REQUIRED            4 OUTER ITERATIONS 
       AND A TOTAL OF          7 INNER ITERATIONS.
    ------------------------------------------------

 NO OUTPUT CONTROL FOR STRESS PERIOD   28   TIME STEP   30



 STREAM LISTING     PERIOD     28   STEP       30

 LAYER ROW COL. STREAM  RCH.  FLOW INTO     FLOW TO   FLOW OUT OF   OVRLND.     DIRECT     STREAM       STREAM     STREAM     STREAM   STREAMBED  STREAMBED
                SEG.NO.  NO.  STRM. RCH.    AQUIFER    STRM. RCH.    RUNOFF     PRECIP       ET          HEAD       DEPTH      WIDTH   CONDCTNC.   GRADIENT

   1    1    1     1     1    5.7748E+01  3.6407E-01   5.7384E+01  0.000E+00  0.000E+00  0.000E+00  1.09455E+03  1.498E+00  1.799E+01  8.095E-02  1.499E+00
   1    2    2     1     2    5.7384E+01  5.6377E-01   5.6820E+01  0.000E+00  0.000E+00  0.000E+00  1.08955E+03  1.492E+00  1.793E+01  1.255E-01  1.497E+00
   1    3    3     1     3    5.6820E+01  4.8075E-01   5.6340E+01  0.000E+00  0.000E+00  0.000E+00  1.08390E+03  1.485E+00  1.786E+01  1.072E-01  1.495E+00
   1    3    4     1     4    5.6340E+01  4.4266E-01   5.5897E+01  0.000E+00  0.000E+00  0.000E+00  1.07889E+03  1.480E+00  1.781E+01  9.882E-02  1.493E+00
   1    4    5     2     1    5.3897E+01  3.8302E-01   5.3514E+01  0.000E+00  0.000E+00  0.000E+00  1.07384E+03  1.911E+00  1.200E+01  7.800E-02  1.637E+00
   1    5    6     2     2    5.3514E+01  2.9420E-01   5.3220E+01  0.000E+00  0.000E+00  0.000E+00  1.06841E+03  1.903E+00  1.200E+01  6.000E-02  1.634E+00
   1    6    6     2     3    5.3220E+01  2.9382E-01   5.2926E+01  0.000E+00  0.000E+00  0.000E+00  1.06369E+03  1.897E+00  1.200E+01  6.000E-02  1.632E+00
   1    7    6     2     4    5.2926E+01  2.9344E-01   5.2633E+01  0.000E+00  0.000E+00  0.000E+00  1.05897E+03  1.891E+00  1.200E+01  6.000E-02  1.630E+00
   1    8    6     2     5    5.2633E+01  2.9306E-01   5.2339E+01  0.000E+00  0.000E+00  0.000E+00  1.05424E+03  1.884E+00  1.200E+01  6.000E-02  1.628E+00
   1    3    5     3     1    2.0000E+00  2.8252E-01   1.7175E+00  0.000E+00  0.000E+00  0.000E+00  1.07555E+03  1.909E+00  9.636E+00  7.227E-02  1.955E+00
   1    3    6     3     2    1.7175E+00  2.4905E-01   1.4684E+00  0.000E+00  0.000E+00  0.000E+00  1.07264E+03  1.727E+00  8.909E+00  6.682E-02  1.864E+00
   1    3    7     3     3    1.4684E+00  1.9718E-01   1.2712E+00  0.000E+00  0.000E+00  0.000E+00  1.06987E+03  1.555E+00  8.218E+00  5.547E-02  1.777E+00
   1    4    8     3     4    1.2712E+00  2.2567E-01   1.0456E+00  0.000E+00  0.000E+00  0.000E+00  1.06682E+03  1.364E+00  7.455E+00  6.709E-02  1.682E+00
   1    5    8     3     5    1.0456E+00  1.5790E-01   8.8768E-01  0.000E+00  0.000E+00  0.000E+00  1.06362E+03  1.164E+00  6.655E+00  4.991E-02  1.582E+00
   1    6    8     3     6    8.8768E-01  5.5980E-02   8.3170E-01  0.000E+00  0.000E+00  0.000E+00  1.06158E+03  1.036E+00  6.145E+00  1.844E-02  1.518E+00
   1    5   10     4     1    1.0000E+01  9.0919E-02   9.9091E+00  0.000E+00  0.000E+00  0.000E+00  1.07836E+03  6.368E-01  1.000E+01  2.500E-02  1.212E+00
   1    5    9     4     2    9.9091E+00  1.8158E-01   9.7275E+00  0.000E+00  0.000E+00  0.000E+00  1.07154E+03  6.315E-01  1.000E+01  5.000E-02  1.211E+00
   1    6    8     4     3    9.7275E+00  1.2689E-01   9.6006E+00  0.000E+00  0.000E+00  0.000E+00  1.06381E+03  6.256E-01  1.000E+01  3.500E-02  1.209E+00
   1    6    8     5     1    1.0432E+01  2.2686E-01   1.0205E+01  0.000E+00  0.000E+00  0.000E+00  1.05868E+03  6.790E-01  1.542E+01  6.166E-02  1.226E+00
   1    7    7     5     2    1.0205E+01  2.7894E-01   9.9265E+00  0.000E+00  0.000E+00  0.000E+00  1.05417E+03  6.732E-01  1.519E+01  7.594E-02  1.224E+00
   1    8    7     5     3    9.9265E+00  1.9221E-01   9.7343E+00  0.000E+00  0.000E+00  0.000E+00  1.04992E+03  6.676E-01  1.497E+01  5.241E-02  1.223E+00
   1    8    6     5     4    9.7343E+00  1.3577E-01   9.5985E+00  0.000E+00  0.000E+00  0.000E+00  1.04691E+03  6.637E-01  1.482E+01  3.706E-02  1.221E+00
   1    9    6     6     1    6.1938E+01  3.0608E-01   6.1632E+01  0.000E+00  0.000E+00  0.000E+00  1.04483E+03  2.101E+00  1.200E+01  6.000E-02  1.700E+00
   1   10    7     6     2    6.1632E+01  3.0571E-01   6.1326E+01  0.000E+00  0.000E+00  0.000E+00  1.04028E+03  2.095E+00  1.200E+01  6.000E-02  1.698E+00
   1   11    7     6     3    6.1326E+01  3.0533E-01   6.1021E+01  0.000E+00  0.000E+00  0.000E+00  1.03573E+03  2.089E+00  1.200E+01  6.000E-02  1.696E+00
   1   12    7     6     4    6.1021E+01  3.0496E-01   6.0716E+01  0.000E+00  0.000E+00  0.000E+00  1.03117E+03  2.083E+00  1.200E+01  6.000E-02  1.694E+00
   1   13    7     6     5    6.0716E+01  2.9246E-02   6.0687E+01  0.000E+00  0.000E+00  0.000E+00  1.02799E+03  2.079E+00  1.200E+01  2.400E-02  4.062E-01
   1   14    9     7     1    1.5000E+02  1.3597E+00   1.4864E+02  0.000E+00  0.000E+00  0.000E+00  1.03987E+03  2.288E+00  5.529E+01  5.593E-01  8.104E-01
   1   13    8     7     2    1.4864E+02  1.9309E+00   1.4671E+02  0.000E+00  0.000E+00  0.000E+00  1.03478E+03  2.279E+00  5.526E+01  6.148E-01  1.047E+00
   1   13    7     7     3    1.4671E+02  1.6300E+00   1.4508E+02  0.000E+00  0.000E+00  0.000E+00  1.02969E+03  2.269E+00  5.521E+01  5.584E-01  9.730E-01
   1   13    6     8     1    2.0577E+02  1.2299E+00   2.0454E+02  0.000E+00  0.000E+00  0.000E+00  1.02504E+03  3.168E+00  4.593E+01  4.681E-01  8.759E-01
   1   13    5     8     2    2.0454E+02  4.0304E-01   2.0413E+02  0.000E+00  0.000E+00  0.000E+00  1.01879E+03  3.163E+00  4.586E+01  4.674E-01  2.874E-01
   1   13    4     8     3    2.0413E+02 -1.8060E+00   2.0594E+02  0.000E+00  0.000E+00  0.000E+00  1.01254E+03  3.167E+00  4.592E+01  4.680E+00 -1.286E-01
   1   13    3     8     4    2.0594E+02 -3.3095E+00   2.0925E+02  0.000E+00  0.000E+00  0.000E+00  1.00631E+03  3.182E+00  4.614E+01  4.702E+00 -2.346E-01
   1   13    2     8     5    2.0925E+02 -2.4186E+00   2.1167E+02  0.000E+00  0.000E+00  0.000E+00  1.00007E+03  3.198E+00  4.637E+01  4.726E+00 -1.706E-01
   1   13    1     8     6    2.1167E+02 -1.8734E+00   2.1354E+02  0.000E+00  0.000E+00  0.000E+00  9.95085E+02  3.210E+00  4.655E+01  2.846E+00 -2.194E-01
   1    8    6     9     1    0.0000E+00  0.0000E+00   0.0000E+00  0.000E+00  0.000E+00  0.000E+00  1.07875E+03  0.000E+00  4.000E+00  0.000E+00  1.000E+00
   1    8    5     9     2    0.0000E+00  0.0000E+00   0.0000E+00  0.000E+00  0.000E+00  0.000E+00  1.07825E+03  0.000E+00  4.000E+00  0.000E+00  1.000E+00





UNSATURATED ZONE PACKAGE VOLUMETRIC BUDGET FOR  TIME STEP    30 STRESS PERIOD   28
  ------------------------------------------------------------------------------



     CUMULATIVE VOLUMES      L**3       RATES FOR THIS TIME STEP      L**3/T
     ------------------                 ------------------------

           IN:                                      IN:
           ---                                      ---
        INFILTRATION =  6026788399.6611          INFILTRATION =           0.8475

          OUT:                                     OUT:
          ----                                     ----
              UZF ET =   868852063.3000                UZF ET =           0.7500
        UZF RECHARGE =  4785655288.0138          UZF RECHARGE =           5.6087

            IN - OUT =   372281048.3473              IN - OUT =          -5.5112

          STORAGE:                                 STORAGE:
          --------                                 --------
      STORAGE CHANGE =   373119894.6999        STORAGE CHANGE =          -5.5112

 PERCENT DISCREPANCY IS DIFFERENCE BETWEEN IN-OUT MINUS CHANGE IN STORAGE
 DIVIDED BY THE AVERAGE OF IN AND OUT TIMES 100

 PERCENT DISCREPANCY =          -0.00     PERCENT DISCREPANCY =           0.00






1
  VOLUMETRIC BUDGET FOR AGRICULTURAL FIELDS AT  END OF TIME STEP   30, STRESS PERIOD  28
  ------------------------------------------------------------------------------

     CUMULATIVE VOLUMES      L**3       RATES FOR THIS TIME STEP      L**3/T
     ------------------                 ------------------------

           IN:                                      IN:
           ---                                      ---
               AG WELLS  =  5381544960.0000                 AG WELLS  =           0.0000
      DIVERSION SEGMENTS =   585000640.0000        DIVERSION SEGMENTS =           0.0000
       IRRIGATION PONDS  =           0.0000         IRRIGATION PONDS  =           0.0000
           GW IRRIGATION =           0.0000             GW IRRIGATION =           0.0000
           SW IRRIGATION =           0.0000             SW IRRIGATION =           0.0000
        SYSTEM LOSSES GW =           0.0000          SYSTEM LOSSES GW =           0.0000
        SYSTEM LOSSES SW =           0.0000          SYSTEM LOSSES SW =           0.0000

                TOTAL IN =  5966545408.0000                  TOTAL IN =           0.0000

          OUT:                                     OUT:
          ----                                     ----
               AG WELLS  =           0.0000                 AG WELLS  =           0.0000
      DIVERSION SEGMENTS =           0.0000        DIVERSION SEGMENTS =           0.0000
       IRRIGATION PONDS  =           0.0000         IRRIGATION PONDS  =           0.0000
           GW IRRIGATION =  5381544960.0000             GW IRRIGATION =           0.0000
           SW IRRIGATION =   585012352.0000             SW IRRIGATION =           0.0000
        SYSTEM LOSSES GW =           0.0000          SYSTEM LOSSES GW =           0.0000
        SYSTEM LOSSES SW =           0.0000          SYSTEM LOSSES SW =           0.0000

               TOTAL OUT =  5966557184.0000                 TOTAL OUT =           0.0000

                IN - OUT =      -11776.0000                  IN - OUT =           0.0000

     PERCENT DISCREPANCY =          -0.00         PERCENT DISCREPANCY =           0.00



1
  VOLUMETRIC BUDGET FOR ENTIRE MODEL AT END OF TIME STEP   30, STRESS PERIOD  28
  ------------------------------------------------------------------------------

     CUMULATIVE VOLUMES      L**3       RATES FOR THIS TIME STEP      L**3/T
     ------------------                 ------------------------

           IN:                                      IN:
           ---                                      ---
             STORAGE     =  4807143424.0000               STORAGE     =           1.4465
       CONSTANT HEAD     =           0.0000         CONSTANT HEAD     =           0.0000
     HEAD DEP BOUNDS     =    20347892.0000       HEAD DEP BOUNDS     =           0.2874
      STREAM LEAKAGE     =   866966144.0000        STREAM LEAKAGE     =          13.6151
        UZF RECHARGE     =  4785655808.0000          UZF RECHARGE     =           5.6087
               GW ET     =           0.0000                 GW ET     =           0.0000
     SURFACE LEAKAGE     =           0.0000       SURFACE LEAKAGE     =           0.0000
           AG WELLS      =           0.0000             AG WELLS      =           0.0000

                TOTAL IN = 10480113664.0000                  TOTAL IN =          20.9576

          OUT:                                     OUT:
          ----                                     ----
             STORAGE     =  4343810560.0000               STORAGE     =          11.2532
       CONSTANT HEAD     =           0.0000         CONSTANT HEAD     =           0.0000
     HEAD DEP BOUNDS     =    20652106.0000       HEAD DEP BOUNDS     =           0.2943
      STREAM LEAKAGE     =   732685056.0000        STREAM LEAKAGE     =           9.4074
        UZF RECHARGE     =           0.0000          UZF RECHARGE     =           0.0000
               GW ET     =     1320913.3750                 GW ET     =       1.6178E-04
     SURFACE LEAKAGE     =           0.0000       SURFACE LEAKAGE     =           0.0000
           AG WELLS      =  5381544960.0000             AG WELLS      =           0.0000

               TOTAL OUT = 10480013312.0000                 TOTAL OUT =          20.9550

                IN - OUT =      100352.0000                  IN - OUT =       2.5845E-03

     PERCENT DISCREPANCY =           0.00         PERCENT DISCREPANCY =           0.01






         TIME SUMMARY AT END OF TIME STEP   30 IN STRESS PERIOD   28
                    SECONDS     MINUTES      HOURS       DAYS        YEARS
                    -----------------------------------------------------------
   TIME STEP LENGTH  87667.      1461.1      24.352      1.0147     2.77799E-03
 STRESS PERIOD TIME 2.63000E+06  43833.      730.56      30.440     8.33397E-02
         TOTAL TIME 7.10967E+07 1.18494E+06  19749.      822.88      2.2529    
1
1
                            STRESS PERIOD NO.   29, LENGTH =   2630000.    
                            -----------------------------------------------

                              NUMBER OF TIME STEPS =    30

                               MULTIPLIER FOR DELT =     1.000

                            INITIAL TIME STEP SIZE =   87666.66    

 REUSING NON-PARAMETER GHB CELLS FROM LAST STRESS PERIOD

      2 GHB CELLS

 REUSING STREAM SEGMENT DATA FROM LAST STRESS PERIOD



            AREAL INFILTRATION RATE
 READING ON UNIT   19 WITH FORMAT: (FREE)              

            1           2           3           4           5           6           7           8           9          10
 ........................................................................................................................
   1   1.0000E-10  2.0000E-10   0.000       0.000       0.000       0.000       0.000       0.000       0.000       0.000    
   2   2.0000E-10  1.0000E-10  2.0000E-10   0.000       0.000      8.0000E-10  8.0000E-10  5.0000E-10   0.000       0.000    
   3    0.000      5.0000E-10  1.0000E-10  1.0000E-10  8.0000E-10  8.0000E-10  5.0000E-10  5.0000E-10   0.000       0.000    
   4   8.0000E-10  5.0000E-10  1.0000E-10  1.0000E-10  1.0000E-10  1.0000E-10  1.0000E-10  1.0000E-10  2.0000E-10   0.000    
   5   8.0000E-10  5.0000E-10  1.0000E-10  1.0000E-10  1.0000E-10  1.0000E-10  1.0000E-10  1.0000E-10  1.0000E-10  1.0000E-10
   6   8.0000E-10  5.0000E-10  5.0000E-10  2.0000E-10  2.0000E-10  1.0000E-10  1.0000E-10  1.0000E-10  1.0000E-10  5.0000E-10
   7   8.0000E-10  5.0000E-10  5.0000E-10  2.0000E-10  2.0000E-10  1.0000E-10  1.0000E-10  2.0000E-10  2.0000E-10   0.000    
   8    0.000      5.0000E-10  5.0000E-10  2.0000E-10  2.0000E-10  1.0000E-10  1.0000E-10  2.0000E-10  5.0000E-10   0.000    
   9    0.000      5.0000E-10  5.0000E-10  2.0000E-10  2.0000E-10  1.0000E-10  1.0000E-10  2.0000E-10  5.0000E-10   0.000    
  10    0.000      5.0000E-10  5.0000E-10  2.0000E-10  2.0000E-10  1.0000E-10  1.0000E-10  2.0000E-10  5.0000E-10  8.0000E-10
  11    0.000      1.0000E-10  1.0000E-10  1.0000E-10  1.0000E-10  1.0000E-10  1.0000E-10  2.0000E-10  5.0000E-10   0.000    
  12   1.0000E-10  1.0000E-10  1.0000E-10  1.0000E-10  1.0000E-10  1.0000E-10  1.0000E-10  1.0000E-10  2.0000E-10   0.000    
  13   1.0000E-10  1.0000E-10  2.0000E-10  2.0000E-10  2.0000E-10  2.0000E-10  2.0000E-10  1.0000E-10  1.0000E-10   0.000    
  14    0.000      2.0000E-10  5.0000E-10  5.0000E-10  5.0000E-10  5.0000E-10  5.0000E-10  2.0000E-10  1.0000E-10   0.000    
  15    0.000       0.000      8.0000E-10  8.0000E-10  8.0000E-10  8.0000E-10   0.000       0.000       0.000       0.000    

                  ET RATE =  2.500000E-08

 USING ET EXTINCTION DEPTH FROM PREVIOUS STRESS PERIOD. CURRENT PERIOD IS:      29

 USING EXTINCTION WATER CONTENT FROM PREVIOUS STRESS PERIOD. CURRENT PERIOD IS:      29

 USING AIR ENTRY PRESSURE FROM PREVIOUS STRESS PERIOD. CURRENT PERIOD IS:      29

 USING ROOT PRESSURE HEAD FROM PREVIOUS STRESS PERIOD. CURRENT PERIOD IS:      29

 USING ROOT ACTIVITY FROM PREVIOUS STRESS PERIOD. CURRENT PERIOD IS:      29

 PROCESSING AG STRESS PERIOD DATA

 READING AG STRESS PERIOD DATA

 READING IRRIGATION SEGMENT

 READING IRRIGATION WELL

 READING SUPPLEMENTAL WELL

 NO IRRPOND OR REUSING IRRPOND DATA FROM LAST STRESS PERIOD

 END PROCESSING AG STRESS PERIOD DATA OPTIONS
 
 SOLVING FOR HEAD 
                                                   Max.-Head-Change                         Max.-Flux-Residual
  Residual-Control   Outer-Iter.   Inner-Iter.     Column Row Layer    Maximum-Head-Change  Column Row Layer    Maximum-Flux-Residual          L2-NORM 
          0                 1           2             5    4     1       0.6186145833E-02       5    4    1         0.3227738502E+00      0.1530842621E+01
          0                 2           2             5    8     1      -0.8307278528E-03       5    8    1        -0.4569377606E-01      0.1696649423E+00
          0                 3           2             5    6     1       0.1977840922E-03       5    6    1         0.1065854448E-01      0.2261433538E-01
          0                 4           1             4    6     1       0.5403443350E-04       5    6    1         0.2920925686E-02      0.5293787996E-02

    ------------------------------------------------
       NWT REQUIRED            4 OUTER ITERATIONS 
       AND A TOTAL OF          7 INNER ITERATIONS.
    ------------------------------------------------

 NO OUTPUT CONTROL FOR STRESS PERIOD   29   TIME STEP    1
 
 SOLVING FOR HEAD 
                                                   Max.-Head-Change                         Max.-Flux-Residual
  Residual-Control   Outer-Iter.   Inner-Iter.     Column Row Layer    Maximum-Head-Change  Column Row Layer    Maximum-Flux-Residual          L2-NORM 
          0                 1           2             4   13     1      -0.1063792828E-01       4   13    1        -0.6131238375E+00      0.1733932742E+01
          0                 2           2             4   13     1       0.1025477706E-02       4   13    1         0.6077102934E-01      0.1858206856E+00
          0                 3           2             5    6     1       0.1963860235E-03       5    6    1         0.1058626113E-01      0.2278591632E-01
          0                 4           1             4    6     1       0.5427190243E-04       5    6    1         0.2900256305E-02      0.5222086074E-02

    ------------------------------------------------
       NWT REQUIRED            4 OUTER ITERATIONS 
       AND A TOTAL OF          7 INNER ITERATIONS.
    ------------------------------------------------

 NO OUTPUT CONTROL FOR STRESS PERIOD   29   TIME STEP    2
 
 SOLVING FOR HEAD 
                                                   Max.-Head-Change                         Max.-Flux-Residual
  Residual-Control   Outer-Iter.   Inner-Iter.     Column Row Layer    Maximum-Head-Change  Column Row Layer    Maximum-Flux-Residual          L2-NORM 
          0                 1           2             4   13     1      -0.1205986905E-01       4   13    1        -0.6937743260E+00      0.1802707062E+01
          0                 2           2             4   13     1       0.1161184183E-02       4   13    1         0.6876355709E-01      0.1884072175E+00
          0                 3           2             4    6     1       0.1948965156E-03       5    6    1         0.1050361368E-01      0.2256735009E-01
          0                 4           1             4    6     1       0.5447579495E-04       4    6    1         0.2897777952E-02      0.5160701516E-02

    ------------------------------------------------
       NWT REQUIRED            4 OUTER ITERATIONS 
       AND A TOTAL OF          7 INNER ITERATIONS.
    ------------------------------------------------

 NO OUTPUT CONTROL FOR STRESS PERIOD   29   TIME STEP    3
 
 SOLVING FOR HEAD 
                                                   Max.-Head-Change                         Max.-Flux-Residual
  Residual-Control   Outer-Iter.   Inner-Iter.     Column Row Layer    Maximum-Head-Change  Column Row Layer    Maximum-Flux-Residual          L2-NORM 
          0                 1           2             4   13     1      -0.1090075401E-01       4   13    1        -0.6268548519E+00      0.1734368111E+01
          0                 2           2             4   13     1       0.1050733044E-02       4   13    1         0.6212670427E-01      0.1843047969E+00
          0                 3           2             4    6     1       0.1955891812E-03       5    6    1         0.1042618565E-01      0.2216249057E-01
          0                 4           1             4    6     1       0.5465215850E-04       4    6    1         0.2907814680E-02      0.5110943242E-02

    ------------------------------------------------
       NWT REQUIRED            4 OUTER ITERATIONS 
       AND A TOTAL OF          7 INNER ITERATIONS.
    ------------------------------------------------

 NO OUTPUT CONTROL FOR STRESS PERIOD   29   TIME STEP    4
 
 SOLVING FOR HEAD 
                                                   Max.-Head-Change                         Max.-Flux-Residual
  Residual-Control   Outer-Iter.   Inner-Iter.     Column Row Layer    Maximum-Head-Change  Column Row Layer    Maximum-Flux-Residual          L2-NORM 
          0                 1           2             4   13     1      -0.9854652596E-02       4   13    1        -0.5665511536E+00      0.1675399148E+01
          0                 2           2             4   13     1       0.9498160895E-03       4   13    1         0.5614522515E-01      0.1785028050E+00
          0                 3           2             4    6     1       0.1961910844E-03       4    6    1         0.1039821876E-01      0.2174232807E-01
          0                 4           1             4    6     1       0.5480553535E-04       4    6    1         0.2916536157E-02      0.5072530324E-02

    ------------------------------------------------
       NWT REQUIRED            4 OUTER ITERATIONS 
       AND A TOTAL OF          7 INNER ITERATIONS.
    ------------------------------------------------

 NO OUTPUT CONTROL FOR STRESS PERIOD   29   TIME STEP    5
 
 SOLVING FOR HEAD 
                                                   Max.-Head-Change                         Max.-Flux-Residual
  Residual-Control   Outer-Iter.   Inner-Iter.     Column Row Layer    Maximum-Head-Change  Column Row Layer    Maximum-Flux-Residual          L2-NORM 
          0                 1           2             2   13     1      -0.9036523344E-02       4   13    1        -0.5121823654E+00      0.1623635222E+01
          0                 2           2             4   13     1       0.8588155864E-03       4   13    1         0.5075316538E-01      0.1734586215E+00
          0                 3           2             4    6     1       0.1967288061E-03       4    6    1         0.1042881009E-01      0.2139843940E-01
          0                 4           1             4    6     1       0.5494265998E-04       4    6    1         0.2924327298E-02      0.5044527091E-02

    ------------------------------------------------
       NWT REQUIRED            4 OUTER ITERATIONS 
       AND A TOTAL OF          7 INNER ITERATIONS.
    ------------------------------------------------

 NO OUTPUT CONTROL FOR STRESS PERIOD   29   TIME STEP    6
 
 SOLVING FOR HEAD 
                                                   Max.-Head-Change                         Max.-Flux-Residual
  Residual-Control   Outer-Iter.   Inner-Iter.     Column Row Layer    Maximum-Head-Change  Column Row Layer    Maximum-Flux-Residual          L2-NORM 
          0                 1           2             2   13     1      -0.8368693607E-02       2   13    1        -0.4706968852E+00      0.1578203631E+01
          0                 2           2             2   13     1       0.7816615791E-03       4   13    1         0.4589203402E-01      0.1690842486E+00
          0                 3           2             4    6     1       0.1971723053E-03       4    6    1         0.1045409066E-01      0.2111880285E-01
          0                 4           1             4    6     1       0.5505558311E-04       4    6    1         0.2930748655E-02      0.5025309309E-02

    ------------------------------------------------
       NWT REQUIRED            4 OUTER ITERATIONS 
       AND A TOTAL OF          7 INNER ITERATIONS.
    ------------------------------------------------

 NO OUTPUT CONTROL FOR STRESS PERIOD   29   TIME STEP    7
 
 SOLVING FOR HEAD 
                                                   Max.-Head-Change                         Max.-Flux-Residual
  Residual-Control   Outer-Iter.   Inner-Iter.     Column Row Layer    Maximum-Head-Change  Column Row Layer    Maximum-Flux-Residual          L2-NORM 
          0                 1           2             2   13     1      -0.7750818036E-02       2   13    1        -0.4358985891E+00      0.1538326708E+01
          0                 2           2             2   13     1       0.7242032162E-03       2   13    1         0.4186607052E-01      0.1652743726E+00
          0                 3           2             4    6     1       0.1975712707E-03       4    6    1         0.1047679332E-01      0.2089497574E-01
          0                 4           1             4    6     1       0.5515759615E-04       4    6    1         0.2936529816E-02      0.5013888745E-02

    ------------------------------------------------
       NWT REQUIRED            4 OUTER ITERATIONS 
       AND A TOTAL OF          7 INNER ITERATIONS.
    ------------------------------------------------

 NO OUTPUT CONTROL FOR STRESS PERIOD   29   TIME STEP    8
 
 SOLVING FOR HEAD 
                                                   Max.-Head-Change                         Max.-Flux-Residual
  Residual-Control   Outer-Iter.   Inner-Iter.     Column Row Layer    Maximum-Head-Change  Column Row Layer    Maximum-Flux-Residual          L2-NORM 
          0                 1           2             2   13     1      -0.7179102729E-02       2   13    1        -0.4037029976E+00      0.1503331832E+01
          0                 2           2             4    6     1       0.7088149592E-03       2   13    1         0.3878673487E-01      0.1619817781E+00
          0                 3           2             4    6     1       0.1978943456E-03       4    6    1         0.1049517828E-01      0.2072045165E-01
          0                 4           1             4    6     1       0.5524038166E-04       4    6    1         0.2941211741E-02      0.5009198999E-02

    ------------------------------------------------
       NWT REQUIRED            4 OUTER ITERATIONS 
       AND A TOTAL OF          7 INNER ITERATIONS.
    ------------------------------------------------

 NO OUTPUT CONTROL FOR STRESS PERIOD   29   TIME STEP    9
 
 SOLVING FOR HEAD 
                                                   Max.-Head-Change                         Max.-Flux-Residual
  Residual-Control   Outer-Iter.   Inner-Iter.     Column Row Layer    Maximum-Head-Change  Column Row Layer    Maximum-Flux-Residual          L2-NORM 
          0                 1           2             2   13     1      -0.6650056719E-02       2   13    1        -0.3739128798E+00      0.1472588691E+01
          0                 2           2             4    6     1       0.7099606606E-03       4    6    1         0.3828118697E-01      0.1591316419E+00
          0                 3           2             4    6     1       0.1981877409E-03       4    6    1         0.1051181861E-01      0.2058816312E-01
          0                 4           1             4    6     1       0.5531606401E-04       4    6    1         0.2945469511E-02      0.5010469285E-02

    ------------------------------------------------
       NWT REQUIRED            4 OUTER ITERATIONS 
       AND A TOTAL OF          7 INNER ITERATIONS.
    ------------------------------------------------

 NO OUTPUT CONTROL FOR STRESS PERIOD   29   TIME STEP   10
 
 SOLVING FOR HEAD 
                                                   Max.-Head-Change                         Max.-Flux-Residual
  Residual-Control   Outer-Iter.   Inner-Iter.     Column Row Layer    Maximum-Head-Change  Column Row Layer    Maximum-Flux-Residual          L2-NORM 
          0                 1           2             2   13     1      -0.6160484546E-02       2   13    1        -0.3463479695E+00      0.1445556939E+01
          0                 2           2             4    6     1       0.7109363375E-03       4    6    1         0.3833584110E-01      0.1566673795E+00
          0                 3           2             4    6     1       0.1984394509E-03       4    6    1         0.1052602180E-01      0.2049273105E-01
          0                 4           1             4    6     1       0.5538165063E-04       4    6    1         0.2949130247E-02      0.5016906383E-02

    ------------------------------------------------
       NWT REQUIRED            4 OUTER ITERATIONS 
       AND A TOTAL OF          7 INNER ITERATIONS.
    ------------------------------------------------

 NO OUTPUT CONTROL FOR STRESS PERIOD   29   TIME STEP   11
 
 SOLVING FOR HEAD 
                                                   Max.-Head-Change                         Max.-Flux-Residual
  Residual-Control   Outer-Iter.   Inner-Iter.     Column Row Layer    Maximum-Head-Change  Column Row Layer    Maximum-Flux-Residual          L2-NORM 
          0                 1           2             2   13     1      -0.5707403422E-02       2   13    1        -0.3208398707E+00      0.1421755815E+01
          0                 2           2             4    6     1       0.7116937505E-03       4    6    1         0.3837794577E-01      0.1545368414E+00
          0                 3           2             4    6     1       0.1986361775E-03       4    6    1         0.1053707405E-01      0.2042847682E-01
          0                 4           1             4    6     1       0.5543346338E-04       4    6    1         0.2951997001E-02      0.5027732500E-02

    ------------------------------------------------
       NWT REQUIRED            4 OUTER ITERATIONS 
       AND A TOTAL OF          7 INNER ITERATIONS.
    ------------------------------------------------

 NO OUTPUT CONTROL FOR STRESS PERIOD   29   TIME STEP   12
 
 SOLVING FOR HEAD 
                                                   Max.-Head-Change                         Max.-Flux-Residual
  Residual-Control   Outer-Iter.   Inner-Iter.     Column Row Layer    Maximum-Head-Change  Column Row Layer    Maximum-Flux-Residual          L2-NORM 
          0                 1           2             3    5     1       0.5618358152E-02       2   13    1        -0.2972380634E+00      0.1400758817E+01
          0                 2           2             4    6     1       0.7124042610E-03       4    6    1         0.3841703474E-01      0.1526966752E+00
          0                 3           2             4    6     1       0.1988231935E-03       4    6    1         0.1054748058E-01      0.2039180716E-01
          0                 4           1             4    6     1       0.5548346683E-04       4    6    1         0.2954732490E-02      0.5042457227E-02

    ------------------------------------------------
       NWT REQUIRED            4 OUTER ITERATIONS 
       AND A TOTAL OF          7 INNER ITERATIONS.
    ------------------------------------------------

 NO OUTPUT CONTROL FOR STRESS PERIOD   29   TIME STEP   13
 
 SOLVING FOR HEAD 
                                                   Max.-Head-Change                         Max.-Flux-Residual
  Residual-Control   Outer-Iter.   Inner-Iter.     Column Row Layer    Maximum-Head-Change  Column Row Layer    Maximum-Flux-Residual          L2-NORM 
          0                 1           2             4    8     1      -0.1081294542E-01       4    8    1        -0.5918962491E+00      0.1502337035E+01
          0                 2           2             4    8     1      -0.2178073088E-02       4    8    1        -0.1181257914E+00      0.1904786101E+00
          0                 3           2             4    8     1      -0.4383522872E-03       4    8    1        -0.2389219299E-01      0.3062971792E-01
          0                 4           1             4    8     1      -0.8809938902E-04       4    8    1        -0.4800310795E-02      0.6651140789E-02

    ------------------------------------------------
       NWT REQUIRED            4 OUTER ITERATIONS 
       AND A TOTAL OF          7 INNER ITERATIONS.
    ------------------------------------------------

 NO OUTPUT CONTROL FOR STRESS PERIOD   29   TIME STEP   14
 
 SOLVING FOR HEAD 
                                                   Max.-Head-Change                         Max.-Flux-Residual
  Residual-Control   Outer-Iter.   Inner-Iter.     Column Row Layer    Maximum-Head-Change  Column Row Layer    Maximum-Flux-Residual          L2-NORM 
          0                 1           2             4    8     1      -0.1323743302E-01       4    8    1        -0.7231187588E+00      0.1541727723E+01
          0                 2           2             4    8     1      -0.2669603061E-02       4    8    1        -0.1447615084E+00      0.2064585098E+00
          0                 3           2             4    6     1       0.1965019912E-03       4    8    1         0.1082606178E-01      0.2164695448E-01
          0                 4           1             4    6     1       0.5457852956E-04       4    6    1         0.2916564062E-02      0.4596443921E-02

    ------------------------------------------------
       NWT REQUIRED            4 OUTER ITERATIONS 
       AND A TOTAL OF          7 INNER ITERATIONS.
    ------------------------------------------------

 NO OUTPUT CONTROL FOR STRESS PERIOD   29   TIME STEP   15
 
 SOLVING FOR HEAD 
                                                   Max.-Head-Change                         Max.-Flux-Residual
  Residual-Control   Outer-Iter.   Inner-Iter.     Column Row Layer    Maximum-Head-Change  Column Row Layer    Maximum-Flux-Residual          L2-NORM 
          0                 1           2             4    8     1      -0.1309363246E-01       4    8    1        -0.7148781239E+00      0.1522275795E+01
          0                 2           2             4    8     1      -0.2068988493E-02       4    8    1        -0.1121237316E+00      0.1834734131E+00
          0                 3           2             4    8     1       0.2022481489E-03       4    8    1         0.1122320205E-01      0.2160294779E-01
          0                 4           1             4    6     1       0.5412435417E-04       4    6    1         0.2894782536E-02      0.4521676556E-02

    ------------------------------------------------
       NWT REQUIRED            4 OUTER ITERATIONS 
       AND A TOTAL OF          7 INNER ITERATIONS.
    ------------------------------------------------

 NO OUTPUT CONTROL FOR STRESS PERIOD   29   TIME STEP   16
 
 SOLVING FOR HEAD 
                                                   Max.-Head-Change                         Max.-Flux-Residual
  Residual-Control   Outer-Iter.   Inner-Iter.     Column Row Layer    Maximum-Head-Change  Column Row Layer    Maximum-Flux-Residual          L2-NORM 
          0                 1           2             4    8     1      -0.1276757274E-01       4    8    1        -0.6967906536E+00      0.1499796808E+01
          0                 2           2             4    8     1      -0.1645728344E-02       4    8    1        -0.8912046524E-01      0.1689022106E+00
          0                 3           2             4    6     1       0.1934509101E-03       4    6    1         0.1031623899E-01      0.2027247502E-01
          0                 4           1             4    6     1       0.5360753897E-04       4    6    1         0.2869476506E-02      0.4422177911E-02

    ------------------------------------------------
       NWT REQUIRED            4 OUTER ITERATIONS 
       AND A TOTAL OF          7 INNER ITERATIONS.
    ------------------------------------------------

 NO OUTPUT CONTROL FOR STRESS PERIOD   29   TIME STEP   17
 
 SOLVING FOR HEAD 
                                                   Max.-Head-Change                         Max.-Flux-Residual
  Residual-Control   Outer-Iter.   Inner-Iter.     Column Row Layer    Maximum-Head-Change  Column Row Layer    Maximum-Flux-Residual          L2-NORM 
          0                 1           2             4    8     1      -0.1227337923E-01       4    8    1        -0.6693335068E+00      0.1614306767E+01
          0                 2           2             5    7     1      -0.2318977079E-02       5    7    1        -0.1283364973E+00      0.2052821807E+00
          0                 3           2             5    7     1      -0.4533486059E-03       5    7    1        -0.2518408276E-01      0.3092255689E-01
          0                 4           1             5    7     1      -0.8848854380E-04       5    7    1        -0.4916570238E-02      0.6095861667E-02

    ------------------------------------------------
       NWT REQUIRED            4 OUTER ITERATIONS 
       AND A TOTAL OF          7 INNER ITERATIONS.
    ------------------------------------------------

 NO OUTPUT CONTROL FOR STRESS PERIOD   29   TIME STEP   18
 
 SOLVING FOR HEAD 
                                                   Max.-Head-Change                         Max.-Flux-Residual
  Residual-Control   Outer-Iter.   Inner-Iter.     Column Row Layer    Maximum-Head-Change  Column Row Layer    Maximum-Flux-Residual          L2-NORM 
          0                 1           2             5    7     1      -0.1259588162E-01       5    7    1        -0.7004796073E+00      0.1603445913E+01
          0                 2           2             5    7     1      -0.2469866679E-02       5    7    1        -0.1365047351E+00      0.2094228380E+00
          0                 3           2             4    6     1       0.1841493191E-03       4    6    1         0.9913887995E-02      0.1747190366E-01
          0                 4           1             4    6     1       0.5037361218E-04       4    6    1         0.2722212308E-02      0.3455847943E-02

    ------------------------------------------------
       NWT REQUIRED            4 OUTER ITERATIONS 
       AND A TOTAL OF          7 INNER ITERATIONS.
    ------------------------------------------------

 NO OUTPUT CONTROL FOR STRESS PERIOD   29   TIME STEP   19
 
 SOLVING FOR HEAD 
                                                   Max.-Head-Change                         Max.-Flux-Residual
  Residual-Control   Outer-Iter.   Inner-Iter.     Column Row Layer    Maximum-Head-Change  Column Row Layer    Maximum-Flux-Residual          L2-NORM 
          0                 1           2             5    7     1      -0.1201501421E-01       5    7    1        -0.6674255788E+00      0.1560285600E+01
          0                 2           2             5    7     1      -0.2310692246E-02       5    7    1        -0.1275561616E+00      0.2075928005E+00
          0                 3           2             5    7     1       0.2249281744E-03       5    7    1         0.1276394658E-01      0.2188615298E-01
          0                 4           1             4    6     1       0.4882768182E-04       4    6    1         0.2644794333E-02      0.3469925284E-02

    ------------------------------------------------
       NWT REQUIRED            4 OUTER ITERATIONS 
       AND A TOTAL OF          7 INNER ITERATIONS.
    ------------------------------------------------

 NO OUTPUT CONTROL FOR STRESS PERIOD   29   TIME STEP   20
 
 SOLVING FOR HEAD 
                                                   Max.-Head-Change                         Max.-Flux-Residual
  Residual-Control   Outer-Iter.   Inner-Iter.     Column Row Layer    Maximum-Head-Change  Column Row Layer    Maximum-Flux-Residual          L2-NORM 
          0                 1           2             5    7     1      -0.1123337814E-01       5    7    1        -0.6234021496E+00      0.1512120596E+01
          0                 2           2             5    7     1      -0.2198227186E-02       5    7    1        -0.1212145740E+00      0.2107770914E+00
          0                 3           2             5    7     1       0.2130839776E-03       5    7    1         0.1212913332E-01      0.1993652969E-01
          0                 4           1             4    6     1       0.4714682506E-04       4    6    1         0.2560906439E-02      0.3338756622E-02

    ------------------------------------------------
       NWT REQUIRED            4 OUTER ITERATIONS 
       AND A TOTAL OF          7 INNER ITERATIONS.
    ------------------------------------------------

 NO OUTPUT CONTROL FOR STRESS PERIOD   29   TIME STEP   21
 
 SOLVING FOR HEAD 
                                                   Max.-Head-Change                         Max.-Flux-Residual
  Residual-Control   Outer-Iter.   Inner-Iter.     Column Row Layer    Maximum-Head-Change  Column Row Layer    Maximum-Flux-Residual          L2-NORM 
          0                 1           2             5    7     1      -0.1026590395E-01       5    7    1        -0.5692200901E+00      0.1460326172E+01
          0                 2           2             5    7     1      -0.2022737867E-02       5    7    1        -0.1114226133E+00      0.1986214279E+00
          0                 3           2             4    8     1      -0.3677675352E-03       4    8    1        -0.1985866416E-01      0.2602395995E-01
          0                 4           1             4    8     1      -0.7509554388E-04       4    8    1        -0.4045661424E-02      0.5236921905E-02

    ------------------------------------------------
       NWT REQUIRED            4 OUTER ITERATIONS 
       AND A TOTAL OF          7 INNER ITERATIONS.
    ------------------------------------------------

 NO OUTPUT CONTROL FOR STRESS PERIOD   29   TIME STEP   22
 
 SOLVING FOR HEAD 
                                                   Max.-Head-Change                         Max.-Flux-Residual
  Residual-Control   Outer-Iter.   Inner-Iter.     Column Row Layer    Maximum-Head-Change  Column Row Layer    Maximum-Flux-Residual          L2-NORM 
          0                 1           2             5    7     1      -0.9124841193E-02       5    7    1        -0.5055438048E+00      0.1409441419E+01
          0                 2           2             5    7     1      -0.1800727739E-02       5    7    1        -0.9907856966E-01      0.1858967079E+00
          0                 3           2             5    7     1      -0.3560332307E-03       5    7    1        -0.1961466242E-01      0.3026470386E-01
          0                 4           1             5    7     1      -0.7054422545E-04       5    7    1        -0.3877368960E-02      0.6199579268E-02

    ------------------------------------------------
       NWT REQUIRED            4 OUTER ITERATIONS 
       AND A TOTAL OF          7 INNER ITERATIONS.
    ------------------------------------------------

 NO OUTPUT CONTROL FOR STRESS PERIOD   29   TIME STEP   23
 
 SOLVING FOR HEAD 
                                                   Max.-Head-Change                         Max.-Flux-Residual
  Residual-Control   Outer-Iter.   Inner-Iter.     Column Row Layer    Maximum-Head-Change  Column Row Layer    Maximum-Flux-Residual          L2-NORM 
          0                 1           2             5    7     1      -0.8079656475E-02       5    7    1        -0.4472789454E+00      0.1372700088E+01
          0                 2           2             5    7     1      -0.1597144708E-02       5    7    1        -0.8776564493E-01      0.1770441980E+00
          0                 3           2             5    7     1      -0.3164109937E-03       5    7    1        -0.1740801770E-01      0.2824770506E-01
          0                 4           1             4    8     1      -0.6357195418E-04       5    7    1        -0.3448272462E-02      0.5812333932E-02

    ------------------------------------------------
       NWT REQUIRED            4 OUTER ITERATIONS 
       AND A TOTAL OF          7 INNER ITERATIONS.
    ------------------------------------------------

 NO OUTPUT CONTROL FOR STRESS PERIOD   29   TIME STEP   24
 
 SOLVING FOR HEAD 
                                                   Max.-Head-Change                         Max.-Flux-Residual
  Residual-Control   Outer-Iter.   Inner-Iter.     Column Row Layer    Maximum-Head-Change  Column Row Layer    Maximum-Flux-Residual          L2-NORM 
          0                 1           2             5    7     1      -0.7424429787E-02       5    7    1        -0.4106790645E+00      0.1345549877E+01
          0                 2           2             5    7     1      -0.1469763943E-02       5    7    1        -0.8068093476E-01      0.1707956507E+00
          0                 3           2             4    8     1      -0.2929759313E-03       5    7    1        -0.1602803979E-01      0.2682157261E-01
          0                 4           1             4    8     1      -0.6021389828E-04       4    8    1        -0.3228435377E-02      0.5536801065E-02

    ------------------------------------------------
       NWT REQUIRED            4 OUTER ITERATIONS 
       AND A TOTAL OF          7 INNER ITERATIONS.
    ------------------------------------------------

 NO OUTPUT CONTROL FOR STRESS PERIOD   29   TIME STEP   25
 
 SOLVING FOR HEAD 
                                                   Max.-Head-Change                         Max.-Flux-Residual
  Residual-Control   Outer-Iter.   Inner-Iter.     Column Row Layer    Maximum-Head-Change  Column Row Layer    Maximum-Flux-Residual          L2-NORM 
          0                 1           2             5    7     1      -0.6845148315E-02       5    7    1        -0.3775262204E+00      0.1325363396E+01
          0                 2           2             5    7     1      -0.1360206036E-02       5    7    1        -0.7449691383E-01      0.1663011484E+00
          0                 3           2             4    8     1      -0.2786969996E-03       4    8    1        -0.1498757396E-01      0.2553562610E-01
          0                 4           1             4    8     1      -0.5722580939E-04       4    8    1        -0.3072052952E-02      0.5146377635E-02

    ------------------------------------------------
       NWT REQUIRED            4 OUTER ITERATIONS 
       AND A TOTAL OF          7 INNER ITERATIONS.
    ------------------------------------------------

 NO OUTPUT CONTROL FOR STRESS PERIOD   29   TIME STEP   26
 
 SOLVING FOR HEAD 
                                                   Max.-Head-Change                         Max.-Flux-Residual
  Residual-Control   Outer-Iter.   Inner-Iter.     Column Row Layer    Maximum-Head-Change  Column Row Layer    Maximum-Flux-Residual          L2-NORM 
          0                 1           2             4    7     1      -0.1649598931E-01       4    7    1        -0.8921704848E+00      0.1574809285E+01
          0                 2           2             4    7     1      -0.2446237723E-02       4    7    1        -0.1315180307E+00      0.2080260520E+00
          0                 3           2             4    8     1      -0.2790581119E-03       4    8    1        -0.1530288426E-01      0.2772639210E-01
          0                 4           1             4    8     1      -0.5667615386E-04       4    8    1        -0.3051888323E-02      0.4831935314E-02

    ------------------------------------------------
       NWT REQUIRED            4 OUTER ITERATIONS 
       AND A TOTAL OF          7 INNER ITERATIONS.
    ------------------------------------------------

 NO OUTPUT CONTROL FOR STRESS PERIOD   29   TIME STEP   27
 
 SOLVING FOR HEAD 
                                                   Max.-Head-Change                         Max.-Flux-Residual
  Residual-Control   Outer-Iter.   Inner-Iter.     Column Row Layer    Maximum-Head-Change  Column Row Layer    Maximum-Flux-Residual          L2-NORM 
          0                 1           2             4    7     1      -0.1730416943E-01       4    7    1        -0.9362024002E+00      0.1588077498E+01
          0                 2           2             4    8     1      -0.1331640833E-02       4    8    1        -0.7132111224E-01      0.1633477151E+00
          0                 3           2             4    8     1      -0.2703509351E-03       4    8    1        -0.1469866781E-01      0.2362054543E-01
          0                 4           1             4    8     1      -0.5492499188E-04       4    8    1        -0.2965624528E-02      0.4514075723E-02

    ------------------------------------------------
       NWT REQUIRED            4 OUTER ITERATIONS 
       AND A TOTAL OF          7 INNER ITERATIONS.
    ------------------------------------------------

 NO OUTPUT CONTROL FOR STRESS PERIOD   29   TIME STEP   28
 
 SOLVING FOR HEAD 
                                                   Max.-Head-Change                         Max.-Flux-Residual
  Residual-Control   Outer-Iter.   Inner-Iter.     Column Row Layer    Maximum-Head-Change  Column Row Layer    Maximum-Flux-Residual          L2-NORM 
          0                 1           2             4    7     1      -0.1794158854E-01       4    7    1        -0.9706584643E+00      0.1722153631E+01
          0                 2           2             5    6     1      -0.2309251617E-02       5    6    1        -0.1260729461E+00      0.2041316003E+00
          0                 3           2             5    6     1      -0.4590238316E-03       5    6    1        -0.2523808304E-01      0.3399640219E-01
          0                 4           1             5    6     1      -0.9127249981E-04       5    6    1        -0.5005445405E-02      0.6644869854E-02

    ------------------------------------------------
       NWT REQUIRED            4 OUTER ITERATIONS 
       AND A TOTAL OF          7 INNER ITERATIONS.
    ------------------------------------------------

 NO OUTPUT CONTROL FOR STRESS PERIOD   29   TIME STEP   29
 
 SOLVING FOR HEAD 
                                                   Max.-Head-Change                         Max.-Flux-Residual
  Residual-Control   Outer-Iter.   Inner-Iter.     Column Row Layer    Maximum-Head-Change  Column Row Layer    Maximum-Flux-Residual          L2-NORM 
          0                 1           2             4    7     1      -0.1834366614E-01       4    7    1        -0.9921947377E+00      0.1855786819E+01
          0                 2           2             5    6     1      -0.2612083344E-02       5    6    1        -0.1427331992E+00      0.2398406080E+00
          0                 3           2             5    7     1      -0.2602964537E-03       5    7    1        -0.1435873400E-01      0.2530286454E-01
          0                 4           1             4    8     1      -0.5183843903E-04       5    7    1        -0.2831107066E-02      0.4244512202E-02

    ------------------------------------------------
       NWT REQUIRED            4 OUTER ITERATIONS 
       AND A TOTAL OF          7 INNER ITERATIONS.
    ------------------------------------------------

 NO OUTPUT CONTROL FOR STRESS PERIOD   29   TIME STEP   30



 STREAM LISTING     PERIOD     29   STEP       30

 LAYER ROW COL. STREAM  RCH.  FLOW INTO     FLOW TO   FLOW OUT OF   OVRLND.     DIRECT     STREAM       STREAM     STREAM     STREAM   STREAMBED  STREAMBED
                SEG.NO.  NO.  STRM. RCH.    AQUIFER    STRM. RCH.    RUNOFF     PRECIP       ET          HEAD       DEPTH      WIDTH   CONDCTNC.   GRADIENT

   1    1    1     1     1    3.7161E+01  2.9408E-01   3.6867E+01  0.000E+00  0.000E+00  0.000E+00  1.09436E+03  1.310E+00  1.516E+01  6.824E-02  1.437E+00
   1    2    2     1     2    3.6867E+01  4.5538E-01   3.6412E+01  0.000E+00  0.000E+00  0.000E+00  1.08937E+03  1.307E+00  1.511E+01  1.057E-01  1.436E+00
   1    3    3     1     3    3.6412E+01  3.8831E-01   3.6024E+01  0.000E+00  0.000E+00  0.000E+00  1.08372E+03  1.303E+00  1.504E+01  9.023E-02  1.434E+00
   1    3    4     1     4    3.6024E+01  3.5753E-01   3.5666E+01  0.000E+00  0.000E+00  0.000E+00  1.07871E+03  1.300E+00  1.498E+01  8.314E-02  1.433E+00
   1    4    5     2     1    3.3666E+01  3.4626E-01   3.3320E+01  0.000E+00  0.000E+00  0.000E+00  1.07337E+03  1.439E+00  1.200E+01  7.800E-02  1.480E+00
   1    5    6     2     2    3.3320E+01  2.6588E-01   3.3054E+01  0.000E+00  0.000E+00  0.000E+00  1.06794E+03  1.431E+00  1.200E+01  6.000E-02  1.477E+00
   1    6    6     2     3    3.3054E+01  2.6546E-01   3.2789E+01  0.000E+00  0.000E+00  0.000E+00  1.06322E+03  1.424E+00  1.200E+01  6.000E-02  1.475E+00
   1    7    6     2     4    3.2789E+01  2.6505E-01   3.2524E+01  0.000E+00  0.000E+00  0.000E+00  1.05849E+03  1.417E+00  1.200E+01  6.000E-02  1.472E+00
   1    8    6     2     5    3.2524E+01  2.6464E-01   3.2259E+01  0.000E+00  0.000E+00  0.000E+00  1.05377E+03  1.411E+00  1.200E+01  6.000E-02  1.470E+00
   1    3    5     3     1    2.0000E+00  2.8252E-01   1.7175E+00  0.000E+00  0.000E+00  0.000E+00  1.07555E+03  1.909E+00  9.636E+00  7.227E-02  1.955E+00
   1    3    6     3     2    1.7175E+00  2.4905E-01   1.4684E+00  0.000E+00  0.000E+00  0.000E+00  1.07264E+03  1.727E+00  8.909E+00  6.682E-02  1.864E+00
   1    3    7     3     3    1.4684E+00  1.9718E-01   1.2712E+00  0.000E+00  0.000E+00  0.000E+00  1.06987E+03  1.555E+00  8.218E+00  5.547E-02  1.777E+00
   1    4    8     3     4    1.2712E+00  2.2567E-01   1.0456E+00  0.000E+00  0.000E+00  0.000E+00  1.06682E+03  1.364E+00  7.455E+00  6.709E-02  1.682E+00
   1    5    8     3     5    1.0456E+00  1.5790E-01   8.8768E-01  0.000E+00  0.000E+00  0.000E+00  1.06362E+03  1.164E+00  6.655E+00  4.991E-02  1.582E+00
   1    6    8     3     6    8.8768E-01  5.5980E-02   8.3170E-01  0.000E+00  0.000E+00  0.000E+00  1.06158E+03  1.036E+00  6.145E+00  1.844E-02  1.518E+00
   1    5   10     4     1    1.0000E+01  9.0919E-02   9.9091E+00  0.000E+00  0.000E+00  0.000E+00  1.07836E+03  6.368E-01  1.000E+01  2.500E-02  1.212E+00
   1    5    9     4     2    9.9091E+00  1.8158E-01   9.7275E+00  0.000E+00  0.000E+00  0.000E+00  1.07154E+03  6.315E-01  1.000E+01  5.000E-02  1.211E+00
   1    6    8     4     3    9.7275E+00  1.2689E-01   9.6006E+00  0.000E+00  0.000E+00  0.000E+00  1.06381E+03  6.256E-01  1.000E+01  3.500E-02  1.209E+00
   1    6    8     5     1    1.0432E+01  2.2686E-01   1.0205E+01  0.000E+00  0.000E+00  0.000E+00  1.05868E+03  6.790E-01  1.542E+01  6.166E-02  1.226E+00
   1    7    7     5     2    1.0205E+01  2.7894E-01   9.9265E+00  0.000E+00  0.000E+00  0.000E+00  1.05417E+03  6.732E-01  1.519E+01  7.594E-02  1.224E+00
   1    8    7     5     3    9.9265E+00  1.9221E-01   9.7343E+00  0.000E+00  0.000E+00  0.000E+00  1.04992E+03  6.676E-01  1.497E+01  5.241E-02  1.223E+00
   1    8    6     5     4    9.7343E+00  1.3577E-01   9.5985E+00  0.000E+00  0.000E+00  0.000E+00  1.04691E+03  6.637E-01  1.482E+01  3.706E-02  1.221E+00
   1    9    6     6     1    4.1857E+01  2.7961E-01   4.1578E+01  0.000E+00  0.000E+00  0.000E+00  1.04439E+03  1.660E+00  1.200E+01  6.000E-02  1.553E+00
   1   10    7     6     2    4.1578E+01  2.7921E-01   4.1299E+01  0.000E+00  0.000E+00  0.000E+00  1.03984E+03  1.654E+00  1.200E+01  6.000E-02  1.551E+00
   1   11    7     6     3    4.1299E+01  2.7881E-01   4.1020E+01  0.000E+00  0.000E+00  0.000E+00  1.03528E+03  1.647E+00  1.200E+01  6.000E-02  1.549E+00
   1   12    7     6     4    4.1020E+01  2.7841E-01   4.0741E+01  0.000E+00  0.000E+00  0.000E+00  1.03073E+03  1.640E+00  1.200E+01  6.000E-02  1.547E+00
   1   13    7     6     5    4.0741E+01  1.8547E-02   4.0723E+01  0.000E+00  0.000E+00  0.000E+00  1.02755E+03  1.637E+00  1.200E+01  2.400E-02  2.576E-01
   1   14    9     7     1    1.5000E+02  1.3614E+00   1.4864E+02  0.000E+00  0.000E+00  0.000E+00  1.03987E+03  2.288E+00  5.529E+01  5.593E-01  8.114E-01
   1   13    8     7     2    1.4864E+02  1.9322E+00   1.4671E+02  0.000E+00  0.000E+00  0.000E+00  1.03478E+03  2.279E+00  5.526E+01  6.148E-01  1.048E+00
   1   13    7     7     3    1.4671E+02  1.6282E+00   1.4508E+02  0.000E+00  0.000E+00  0.000E+00  1.02969E+03  2.269E+00  5.521E+01  5.584E-01  9.720E-01
   1   13    6     8     1    1.8580E+02  1.1386E+00   1.8466E+02  0.000E+00  0.000E+00  0.000E+00  1.02492E+03  3.049E+00  4.421E+01  4.505E-01  8.425E-01
   1   13    5     8     2    1.8466E+02  3.4083E-01   1.8432E+02  0.000E+00  0.000E+00  0.000E+00  1.01867E+03  3.044E+00  4.414E+01  4.498E-01  2.526E-01
   1   13    4     8     3    1.8432E+02 -1.7712E+00   1.8609E+02  0.000E+00  0.000E+00  0.000E+00  1.01242E+03  3.049E+00  4.420E+01  4.505E+00 -1.311E-01
   1   13    3     8     4    1.8609E+02 -3.2155E+00   1.8931E+02  0.000E+00  0.000E+00  0.000E+00  1.00619E+03  3.064E+00  4.443E+01  4.527E+00 -2.368E-01
   1   13    2     8     5    1.8931E+02 -2.2863E+00   1.9159E+02  0.000E+00  0.000E+00  0.000E+00  9.99956E+02  3.081E+00  4.467E+01  4.552E+00 -1.674E-01
   1   13    1     8     6    1.9159E+02 -1.8776E+00   1.9347E+02  0.000E+00  0.000E+00  0.000E+00  9.94968E+02  3.093E+00  4.485E+01  2.742E+00 -2.282E-01
   1    8    6     9     1    0.0000E+00  0.0000E+00   0.0000E+00  0.000E+00  0.000E+00  0.000E+00  1.07875E+03  0.000E+00  4.000E+00  0.000E+00  1.000E+00
   1    8    5     9     2    0.0000E+00  0.0000E+00   0.0000E+00  0.000E+00  0.000E+00  0.000E+00  1.07825E+03  0.000E+00  4.000E+00  0.000E+00  1.000E+00





UNSATURATED ZONE PACKAGE VOLUMETRIC BUDGET FOR  TIME STEP    30 STRESS PERIOD   29
  ------------------------------------------------------------------------------



     CUMULATIVE VOLUMES      L**3       RATES FOR THIS TIME STEP      L**3/T
     ------------------                 ------------------------

           IN:                                      IN:
           ---                                      ---
        INFILTRATION =  6029017324.5339          INFILTRATION =           0.8475

          OUT:                                     OUT:
          ----                                     ----
              UZF ET =   872301661.6176                UZF ET =           0.8475
        UZF RECHARGE =  4797167659.7810          UZF RECHARGE =           1.4169

            IN - OUT =   359548003.1353              IN - OUT =          -1.4169

          STORAGE:                                 STORAGE:
          --------                                 --------
      STORAGE CHANGE =   360386849.4788        STORAGE CHANGE =          -1.4169

 PERCENT DISCREPANCY IS DIFFERENCE BETWEEN IN-OUT MINUS CHANGE IN STORAGE
 DIVIDED BY THE AVERAGE OF IN AND OUT TIMES 100

 PERCENT DISCREPANCY =          -0.00     PERCENT DISCREPANCY =           0.00






1
  VOLUMETRIC BUDGET FOR AGRICULTURAL FIELDS AT  END OF TIME STEP   30, STRESS PERIOD  29
  ------------------------------------------------------------------------------

     CUMULATIVE VOLUMES      L**3       RATES FOR THIS TIME STEP      L**3/T
     ------------------                 ------------------------

           IN:                                      IN:
           ---                                      ---
               AG WELLS  =  5381544960.0000                 AG WELLS  =           0.0000
      DIVERSION SEGMENTS =   585000640.0000        DIVERSION SEGMENTS =           0.0000
       IRRIGATION PONDS  =           0.0000         IRRIGATION PONDS  =           0.0000
           GW IRRIGATION =           0.0000             GW IRRIGATION =           0.0000
           SW IRRIGATION =           0.0000             SW IRRIGATION =           0.0000
        SYSTEM LOSSES GW =           0.0000          SYSTEM LOSSES GW =           0.0000
        SYSTEM LOSSES SW =           0.0000          SYSTEM LOSSES SW =           0.0000

                TOTAL IN =  5966545408.0000                  TOTAL IN =           0.0000

          OUT:                                     OUT:
          ----                                     ----
               AG WELLS  =           0.0000                 AG WELLS  =           0.0000
      DIVERSION SEGMENTS =           0.0000        DIVERSION SEGMENTS =           0.0000
       IRRIGATION PONDS  =           0.0000         IRRIGATION PONDS  =           0.0000
           GW IRRIGATION =  5381544960.0000             GW IRRIGATION =           0.0000
           SW IRRIGATION =   585012352.0000             SW IRRIGATION =           0.0000
        SYSTEM LOSSES GW =           0.0000          SYSTEM LOSSES GW =           0.0000
        SYSTEM LOSSES SW =           0.0000          SYSTEM LOSSES SW =           0.0000

               TOTAL OUT =  5966557184.0000                 TOTAL OUT =           0.0000

                IN - OUT =      -11776.0000                  IN - OUT =           0.0000

     PERCENT DISCREPANCY =          -0.00         PERCENT DISCREPANCY =           0.00



1
  VOLUMETRIC BUDGET FOR ENTIRE MODEL AT END OF TIME STEP   30, STRESS PERIOD  29
  ------------------------------------------------------------------------------

     CUMULATIVE VOLUMES      L**3       RATES FOR THIS TIME STEP      L**3/T
     ------------------                 ------------------------

           IN:                                      IN:
           ---                                      ---
             STORAGE     =  4815124992.0000               STORAGE     =           3.8574
       CONSTANT HEAD     =           0.0000         CONSTANT HEAD     =           0.0000
     HEAD DEP BOUNDS     =    21103878.0000       HEAD DEP BOUNDS     =           0.2875
      STREAM LEAKAGE     =   899002560.0000        STREAM LEAKAGE     =          12.8399
        UZF RECHARGE     =  4797168640.0000          UZF RECHARGE     =           1.4169
               GW ET     =           0.0000                 GW ET     =           0.0000
     SURFACE LEAKAGE     =           0.0000       SURFACE LEAKAGE     =           0.0000
           AG WELLS      =           0.0000             AG WELLS      =           0.0000

                TOTAL IN = 10532400128.0000                  TOTAL IN =          18.4018

          OUT:                                     OUT:
          ----                                     ----
             STORAGE     =  4367102464.0000               STORAGE     =           8.9616
       CONSTANT HEAD     =           0.0000         CONSTANT HEAD     =           0.0000
     HEAD DEP BOUNDS     =    21420536.0000       HEAD DEP BOUNDS     =           0.2908
      STREAM LEAKAGE     =   760905280.0000        STREAM LEAKAGE     =           9.1506
        UZF RECHARGE     =           0.0000          UZF RECHARGE     =           0.0000
               GW ET     =     1322477.1250                 GW ET     =           0.0000
     SURFACE LEAKAGE     =           0.0000       SURFACE LEAKAGE     =           0.0000
           AG WELLS      =  5381544960.0000             AG WELLS      =           0.0000

               TOTAL OUT = 10532295680.0000                 TOTAL OUT =          18.4031

                IN - OUT =      104448.0000                  IN - OUT =      -1.2989E-03

     PERCENT DISCREPANCY =           0.00         PERCENT DISCREPANCY =          -0.01






         TIME SUMMARY AT END OF TIME STEP   30 IN STRESS PERIOD   29
                    SECONDS     MINUTES      HOURS       DAYS        YEARS
                    -----------------------------------------------------------
   TIME STEP LENGTH  87667.      1461.1      24.352      1.0147     2.77799E-03
 STRESS PERIOD TIME 2.63000E+06  43833.      730.56      30.440     8.33397E-02
         TOTAL TIME 7.37266E+07 1.22878E+06  20480.      853.32      2.3363    
1
1
                            STRESS PERIOD NO.   30, LENGTH =   2630000.    
                            -----------------------------------------------

                              NUMBER OF TIME STEPS =    30

                               MULTIPLIER FOR DELT =     1.000

                            INITIAL TIME STEP SIZE =   87666.66    

 REUSING NON-PARAMETER GHB CELLS FROM LAST STRESS PERIOD

      2 GHB CELLS

 REUSING STREAM SEGMENT DATA FROM LAST STRESS PERIOD



            AREAL INFILTRATION RATE
 READING ON UNIT   19 WITH FORMAT: (FREE)              

            1           2           3           4           5           6           7           8           9          10
 ........................................................................................................................
   1   1.0000E-10  2.0000E-10   0.000       0.000       0.000       0.000       0.000       0.000       0.000       0.000    
   2   2.0000E-10  1.0000E-10  2.0000E-10   0.000       0.000      8.0000E-10  8.0000E-10  5.0000E-10   0.000       0.000    
   3    0.000      5.0000E-10  1.0000E-10  1.0000E-10  8.0000E-10  8.0000E-10  5.0000E-10  5.0000E-10   0.000       0.000    
   4   8.0000E-10  5.0000E-10  1.0000E-10  1.0000E-10  1.0000E-10  1.0000E-10  1.0000E-10  1.0000E-10  2.0000E-10   0.000    
   5   8.0000E-10  5.0000E-10  1.0000E-10  1.0000E-10  1.0000E-10  1.0000E-10  1.0000E-10  1.0000E-10  1.0000E-10  1.0000E-10
   6   8.0000E-10  5.0000E-10  5.0000E-10  2.0000E-10  2.0000E-10  1.0000E-10  1.0000E-10  1.0000E-10  1.0000E-10  5.0000E-10
   7   8.0000E-10  5.0000E-10  5.0000E-10  2.0000E-10  2.0000E-10  1.0000E-10  1.0000E-10  2.0000E-10  2.0000E-10   0.000    
   8    0.000      5.0000E-10  5.0000E-10  2.0000E-10  2.0000E-10  1.0000E-10  1.0000E-10  2.0000E-10  5.0000E-10   0.000    
   9    0.000      5.0000E-10  5.0000E-10  2.0000E-10  2.0000E-10  1.0000E-10  1.0000E-10  2.0000E-10  5.0000E-10   0.000    
  10    0.000      5.0000E-10  5.0000E-10  2.0000E-10  2.0000E-10  1.0000E-10  1.0000E-10  2.0000E-10  5.0000E-10  8.0000E-10
  11    0.000      1.0000E-10  1.0000E-10  1.0000E-10  1.0000E-10  1.0000E-10  1.0000E-10  2.0000E-10  5.0000E-10   0.000    
  12   1.0000E-10  1.0000E-10  1.0000E-10  1.0000E-10  1.0000E-10  1.0000E-10  1.0000E-10  1.0000E-10  2.0000E-10   0.000    
  13   1.0000E-10  1.0000E-10  2.0000E-10  2.0000E-10  2.0000E-10  2.0000E-10  2.0000E-10  1.0000E-10  1.0000E-10   0.000    
  14    0.000      2.0000E-10  5.0000E-10  5.0000E-10  5.0000E-10  5.0000E-10  5.0000E-10  2.0000E-10  1.0000E-10   0.000    
  15    0.000       0.000      8.0000E-10  8.0000E-10  8.0000E-10  8.0000E-10   0.000       0.000       0.000       0.000    

                  ET RATE =  5.000000E-08

 USING ET EXTINCTION DEPTH FROM PREVIOUS STRESS PERIOD. CURRENT PERIOD IS:      30

 USING EXTINCTION WATER CONTENT FROM PREVIOUS STRESS PERIOD. CURRENT PERIOD IS:      30

 USING AIR ENTRY PRESSURE FROM PREVIOUS STRESS PERIOD. CURRENT PERIOD IS:      30

 USING ROOT PRESSURE HEAD FROM PREVIOUS STRESS PERIOD. CURRENT PERIOD IS:      30

 USING ROOT ACTIVITY FROM PREVIOUS STRESS PERIOD. CURRENT PERIOD IS:      30

 PROCESSING AG STRESS PERIOD DATA

 READING AG STRESS PERIOD DATA

 READING IRRIGATION SEGMENT

 READING IRRIGATION WELL

 READING SUPPLEMENTAL WELL

 NO IRRPOND OR REUSING IRRPOND DATA FROM LAST STRESS PERIOD

 END PROCESSING AG STRESS PERIOD DATA OPTIONS
 
 SOLVING FOR HEAD 
                                                   Max.-Head-Change                         Max.-Flux-Residual
  Residual-Control   Outer-Iter.   Inner-Iter.     Column Row Layer    Maximum-Head-Change  Column Row Layer    Maximum-Flux-Residual          L2-NORM 
          0                 1           2             4   13     1       0.2009765460E-01       4   13    1         0.1159359589E+01      0.2689970101E+01
          0                 2           2             4    7     1      -0.1912336915E+01       5    6    1        -0.1001157852E+03      0.2450246695E+03
          0                 3           2             4    7     1       0.1851497020E+00       4    7    1         0.1000056460E+02      0.2293105619E+02
          0                 4           2             4    7     1      -0.1260847559E-01       4    7    1        -0.7026125122E+00      0.1571994807E+01
          0                 5           2             4    7     1       0.5017008893E-03       4    7    1         0.2883761866E-01      0.6375630029E-01
          0                 6           1             4    7     1      -0.6186191924E-05       4    7    1        -0.3667015774E-03      0.8181643401E-03

    ------------------------------------------------
       NWT REQUIRED            6 OUTER ITERATIONS 
       AND A TOTAL OF         11 INNER ITERATIONS.
    ------------------------------------------------

 NO OUTPUT CONTROL FOR STRESS PERIOD   30   TIME STEP    1
 
 SOLVING FOR HEAD 
                                                   Max.-Head-Change                         Max.-Flux-Residual
  Residual-Control   Outer-Iter.   Inner-Iter.     Column Row Layer    Maximum-Head-Change  Column Row Layer    Maximum-Flux-Residual          L2-NORM 
          0                 1           2             5    8     1       0.4641289839E-01       5    8    1         0.2571337156E+01      0.5522654778E+01
          0                 2           2             7   13     1      -0.6575039596E-02       7   13    1        -0.3645912727E+00      0.6548498886E+00
          0                 3           2             7   13     1       0.4476074495E-03       7   13    1         0.2551364660E-01      0.4576081467E-01
          0                 4           1             7   13     1      -0.1780199733E-04       7   13    1        -0.1042953228E-02      0.1859815110E-02

    ------------------------------------------------
       NWT REQUIRED            4 OUTER ITERATIONS 
       AND A TOTAL OF          7 INNER ITERATIONS.
    ------------------------------------------------

 NO OUTPUT CONTROL FOR STRESS PERIOD   30   TIME STEP    2
 
 SOLVING FOR HEAD 
                                                   Max.-Head-Change                         Max.-Flux-Residual
  Residual-Control   Outer-Iter.   Inner-Iter.     Column Row Layer    Maximum-Head-Change  Column Row Layer    Maximum-Flux-Residual          L2-NORM 
          0                 1           2             5    8     1       0.4356760374E-01       5    8    1         0.2411929491E+01      0.5189334835E+01
          0                 2           2             5    8     1      -0.4178412319E-02       5    8    1        -0.2374060452E+00      0.5142420513E+00
          0                 3           2             5    8     1       0.2845335042E-03       5    8    1         0.1661837005E-01      0.3581370607E-01
          0                 4           1             5    8     1      -0.1132185913E-04       5    8    1        -0.6796925745E-03      0.1453702573E-02

    ------------------------------------------------
       NWT REQUIRED            4 OUTER ITERATIONS 
       AND A TOTAL OF          7 INNER ITERATIONS.
    ------------------------------------------------

 NO OUTPUT CONTROL FOR STRESS PERIOD   30   TIME STEP    3
 
 SOLVING FOR HEAD 
                                                   Max.-Head-Change                         Max.-Flux-Residual
  Residual-Control   Outer-Iter.   Inner-Iter.     Column Row Layer    Maximum-Head-Change  Column Row Layer    Maximum-Flux-Residual          L2-NORM 
          0                 1           2             5    8     1       0.4104291062E-01       5    8    1         0.2267235796E+01      0.4890205353E+01
          0                 2           2             5    8     1      -0.3992444524E-02       5    8    1        -0.2267294947E+00      0.4869939780E+00
          0                 3           2             5    8     1       0.2718698550E-03       5    8    1         0.1587101585E-01      0.3392677710E-01
          0                 4           1             5    8     1      -0.1081796013E-04       5    8    1        -0.6491257184E-03      0.1377639933E-02

    ------------------------------------------------
       NWT REQUIRED            4 OUTER ITERATIONS 
       AND A TOTAL OF          7 INNER ITERATIONS.
    ------------------------------------------------

 NO OUTPUT CONTROL FOR STRESS PERIOD   30   TIME STEP    4
 
 SOLVING FOR HEAD 
                                                   Max.-Head-Change                         Max.-Flux-Residual
  Residual-Control   Outer-Iter.   Inner-Iter.     Column Row Layer    Maximum-Head-Change  Column Row Layer    Maximum-Flux-Residual          L2-NORM 
          0                 1           2             5    8     1       0.3863731315E-01       5    8    1         0.2132863417E+01      0.4613906646E+01
          0                 2           2             5    8     1      -0.3758430503E-02       5    8    1        -0.2132915190E+00      0.4597865237E+00
          0                 3           2             5    8     1       0.2559344649E-03       5    8    1         0.1493036379E-01      0.3203944119E-01
          0                 4           1             5    8     1      -0.1018387530E-04       5    8    1        -0.6106529565E-03      0.1301339965E-02

    ------------------------------------------------
       NWT REQUIRED            4 OUTER ITERATIONS 
       AND A TOTAL OF          7 INNER ITERATIONS.
    ------------------------------------------------

 NO OUTPUT CONTROL FOR STRESS PERIOD   30   TIME STEP    5
 
 SOLVING FOR HEAD 
                                                   Max.-Head-Change                         Max.-Flux-Residual
  Residual-Control   Outer-Iter.   Inner-Iter.     Column Row Layer    Maximum-Head-Change  Column Row Layer    Maximum-Flux-Residual          L2-NORM 
          0                 1           2             5    8     1       0.3639783207E-01       5    8    1         0.2007844463E+01      0.4358629401E+01
          0                 2           2             4    7     1      -0.1914935405E+01       5    8    1        -0.1002007890E+03      0.2451944367E+03
          0                 3           2             4    7     1       0.1862543650E+00       4    7    1         0.1013298153E+02      0.1883258926E+02
          0                 4           2             4    7     1      -0.1268639432E-01       4    7    1        -0.7180212630E+00      0.9762217047E+00
          0                 5           1             4    7     1       0.5069889051E-03       4    7    1         0.2989494071E-01      0.3179316721E-01
          0                 6           1             4    7     1      -0.6251402145E-05       4    7    1        -0.3833155802E-03      0.4296798936E-03

    ------------------------------------------------
       NWT REQUIRED            6 OUTER ITERATIONS 
       AND A TOTAL OF         10 INNER ITERATIONS.
    ------------------------------------------------

 NO OUTPUT CONTROL FOR STRESS PERIOD   30   TIME STEP    6
 
 SOLVING FOR HEAD 
                                                   Max.-Head-Change                         Max.-Flux-Residual
  Residual-Control   Outer-Iter.   Inner-Iter.     Column Row Layer    Maximum-Head-Change  Column Row Layer    Maximum-Flux-Residual          L2-NORM 
          0                 1           2             5    8     1       0.8806316603E-01       5    8    1         0.4860401552E+01      0.1018042831E+02
          0                 2           2             5    8     1      -0.8566024010E-02       5    8    1        -0.4860314926E+00      0.1078007208E+01
          0                 3           2             5    8     1       0.5833157016E-03       5    8    1         0.3402230147E-01      0.7539112868E-01
          0                 4           1             5    8     1      -0.2321067242E-04       5    8    1        -0.1391513696E-02      0.3079370672E-02

    ------------------------------------------------
       NWT REQUIRED            4 OUTER ITERATIONS 
       AND A TOTAL OF          7 INNER ITERATIONS.
    ------------------------------------------------

 NO OUTPUT CONTROL FOR STRESS PERIOD   30   TIME STEP    7
 
 SOLVING FOR HEAD 
                                                   Max.-Head-Change                         Max.-Flux-Residual
  Residual-Control   Outer-Iter.   Inner-Iter.     Column Row Layer    Maximum-Head-Change  Column Row Layer    Maximum-Flux-Residual          L2-NORM 
          0                 1           2             5    8     1       0.8298506064E-01       5    8    1         0.4576321928E+01      0.9649313821E+01
          0                 2           2             5    8     1      -0.8072075180E-02       5    8    1        -0.4576246571E+00      0.9642699556E+00
          0                 3           2             5    8     1       0.5496794605E-03       5    8    1         0.3203381148E-01      0.6744219024E-01
          0                 4           1             5    8     1      -0.2187225547E-04       5    8    1        -0.1310184384E-02      0.2754969099E-02

    ------------------------------------------------
       NWT REQUIRED            4 OUTER ITERATIONS 
       AND A TOTAL OF          7 INNER ITERATIONS.
    ------------------------------------------------

 NO OUTPUT CONTROL FOR STRESS PERIOD   30   TIME STEP    8
 
 SOLVING FOR HEAD 
                                                   Max.-Head-Change                         Max.-Flux-Residual
  Residual-Control   Outer-Iter.   Inner-Iter.     Column Row Layer    Maximum-Head-Change  Column Row Layer    Maximum-Flux-Residual          L2-NORM 
          0                 1           2             5    8     1       0.7826472407E-01       5    8    1         0.4312429905E+01      0.9159695251E+01
          0                 2           2             5    8     1      -0.7612928839E-02       5    8    1        -0.4312364142E+00      0.9153816434E+00
          0                 3           2             5    8     1       0.5184131627E-03       5    8    1         0.3018662460E-01      0.6402626985E-01
          0                 4           1             5    8     1      -0.2062814057E-04       5    8    1        -0.1234634366E-02      0.2615620177E-02

    ------------------------------------------------
       NWT REQUIRED            4 OUTER ITERATIONS 
       AND A TOTAL OF          7 INNER ITERATIONS.
    ------------------------------------------------

 NO OUTPUT CONTROL FOR STRESS PERIOD   30   TIME STEP    9
 
 SOLVING FOR HEAD 
                                                   Max.-Head-Change                         Max.-Flux-Residual
  Residual-Control   Outer-Iter.   Inner-Iter.     Column Row Layer    Maximum-Head-Change  Column Row Layer    Maximum-Flux-Residual          L2-NORM 
          0                 1           2             5    8     1       0.7387416087E-01       5    8    1         0.4067134718E+01      0.8703873365E+01
          0                 2           2             5    8     1      -0.7185857796E-02       5    8    1        -0.4067076774E+00      0.8697053638E+00
          0                 3           2             5    8     1       0.4893310938E-03       5    8    1         0.2846960454E-01      0.6083464946E-01
          0                 4           1             5    8     1      -0.1947093837E-04       5    8    1        -0.1164408192E-02      0.2485471469E-02

    ------------------------------------------------
       NWT REQUIRED            4 OUTER ITERATIONS 
       AND A TOTAL OF          7 INNER ITERATIONS.
    ------------------------------------------------

 NO OUTPUT CONTROL FOR STRESS PERIOD   30   TIME STEP   10
 
 SOLVING FOR HEAD 
                                                   Max.-Head-Change                         Max.-Flux-Residual
  Residual-Control   Outer-Iter.   Inner-Iter.     Column Row Layer    Maximum-Head-Change  Column Row Layer    Maximum-Flux-Residual          L2-NORM 
          0                 1           2             5    8     1       0.6978753711E-01       5    8    1         0.3838969330E+01      0.8279242779E+01
          0                 2           2             4    7     1      -0.1864321146E+01       5    8    1        -0.1003838918E+03      0.2455473168E+03
          0                 3           2             4    7     1       0.1269342224E+00       5    8    1         0.7024671067E+01      0.1738651685E+02
          0                 4           2             4    7     1      -0.5050923521E-02       5    8    1        -0.2871932922E+00      0.7269851358E+00
          0                 5           1             4   13     1      -0.6987120440E-04       4   13    1        -0.4340101205E-02      0.1177376707E-01

    ------------------------------------------------
       NWT REQUIRED            5 OUTER ITERATIONS 
       AND A TOTAL OF          9 INNER ITERATIONS.
    ------------------------------------------------

 NO OUTPUT CONTROL FOR STRESS PERIOD   30   TIME STEP   11
 
 SOLVING FOR HEAD 
                                                   Max.-Head-Change                         Max.-Flux-Residual
  Residual-Control   Outer-Iter.   Inner-Iter.     Column Row Layer    Maximum-Head-Change  Column Row Layer    Maximum-Flux-Residual          L2-NORM 
          0                 1           2             5    8     1       0.1199922950E+00       5    8    1         0.6607354430E+01      0.1413112578E+02
          0                 2           2             5    8     1      -0.1167174696E-01       5    8    1        -0.6607193577E+00      0.1457579774E+01
          0                 3           2             5    8     1       0.7948049656E-03       5    8    1         0.4625052752E-01      0.1019970296E+00
          0                 4           1             5    8     1      -0.3162602315E-04       5    8    1        -0.1891648503E-02      0.4169661427E-02

    ------------------------------------------------
       NWT REQUIRED            4 OUTER ITERATIONS 
       AND A TOTAL OF          7 INNER ITERATIONS.
    ------------------------------------------------

 NO OUTPUT CONTROL FOR STRESS PERIOD   30   TIME STEP   12
 
 SOLVING FOR HEAD 
                                                   Max.-Head-Change                         Max.-Flux-Residual
  Residual-Control   Outer-Iter.   Inner-Iter.     Column Row Layer    Maximum-Head-Change  Column Row Layer    Maximum-Flux-Residual          L2-NORM 
          0                 1           2             5    8     1       0.1133375119E+00       5    8    1         0.6235519755E+01      0.1344775133E+02
          0                 2           2             5    8     1      -0.1102444544E-01       5    8    1        -0.6235378102E+00      0.1344428836E+01
          0                 3           2             5    8     1       0.7507258643E-03       5    8    1         0.4364779993E-01      0.9408421286E-01
          0                 4           1             5    8     1      -0.2987207569E-04       5    8    1        -0.1785196882E-02      0.3846432094E-02

    ------------------------------------------------
       NWT REQUIRED            4 OUTER ITERATIONS 
       AND A TOTAL OF          7 INNER ITERATIONS.
    ------------------------------------------------

 NO OUTPUT CONTROL FOR STRESS PERIOD   30   TIME STEP   13
 
 SOLVING FOR HEAD 
                                                   Max.-Head-Change                         Max.-Flux-Residual
  Residual-Control   Outer-Iter.   Inner-Iter.     Column Row Layer    Maximum-Head-Change  Column Row Layer    Maximum-Flux-Residual          L2-NORM 
          0                 1           2             5    8     1       0.1071441655E+00       5    8    1         0.5889700352E+01      0.1281398808E+02
          0                 2           2             5    8     1      -0.1042202525E-01       5    8    1        -0.5889575162E+00      0.1281087847E+01
          0                 3           2             5    8     1       0.7097030523E-03       5    8    1         0.4122716271E-01      0.8965341236E-01
          0                 4           1             5    8     1      -0.2823974085E-04       5    8    1        -0.1686192758E-02      0.3665416230E-02

    ------------------------------------------------
       NWT REQUIRED            4 OUTER ITERATIONS 
       AND A TOTAL OF          7 INNER ITERATIONS.
    ------------------------------------------------

 NO OUTPUT CONTROL FOR STRESS PERIOD   30   TIME STEP   14
 
 SOLVING FOR HEAD 
                                                   Max.-Head-Change                         Max.-Flux-Residual
  Residual-Control   Outer-Iter.   Inner-Iter.     Column Row Layer    Maximum-Head-Change  Column Row Layer    Maximum-Flux-Residual          L2-NORM 
          0                 1           2             5    8     1       0.1013764039E+00       5    8    1         0.5567860646E+01      0.1222242867E+02
          0                 2           2             5    8     1      -0.9860998916E-02       5    8    1        -0.5567749245E+00      0.1222686819E+01
          0                 3           2             5    8     1       0.6714990410E-03       5    8    1         0.3897436693E-01      0.8556411834E-01
          0                 4           1             5    8     1      -0.2671956850E-04       5    8    1        -0.1594053341E-02      0.3498078550E-02

    ------------------------------------------------
       NWT REQUIRED            4 OUTER ITERATIONS 
       AND A TOTAL OF          7 INNER ITERATIONS.
    ------------------------------------------------

 NO OUTPUT CONTROL FOR STRESS PERIOD   30   TIME STEP   15
 
 SOLVING FOR HEAD 
                                                   Max.-Head-Change                         Max.-Flux-Residual
  Residual-Control   Outer-Iter.   Inner-Iter.     Column Row Layer    Maximum-Head-Change  Column Row Layer    Maximum-Flux-Residual          L2-NORM 
          0                 1           2             5    8     1       0.9600134488E-01       5    8    1         0.5268133950E+01      0.1166927023E+02
          0                 2           2             5    8     1      -0.9406451702E-02       5    8    1        -0.5305633607E+00      0.1173853870E+01
          0                 3           2             5    8     1       0.5523675135E-03       5    8    1         0.3214833678E-01      0.7302966758E-01
          0                 4           1             5    8     1      -0.7083579215E-04       5    8    1        -0.4157388725E-02      0.9587221080E-02

    ------------------------------------------------
       NWT REQUIRED            4 OUTER ITERATIONS 
       AND A TOTAL OF          7 INNER ITERATIONS.
    ------------------------------------------------

 NO OUTPUT CONTROL FOR STRESS PERIOD   30   TIME STEP   16
 
 SOLVING FOR HEAD 
                                                   Max.-Head-Change                         Max.-Flux-Residual
  Residual-Control   Outer-Iter.   Inner-Iter.     Column Row Layer    Maximum-Head-Change  Column Row Layer    Maximum-Flux-Residual          L2-NORM 
          0                 1           2             5    8     1       0.9099509106E-01       5    8    1         0.4989155885E+01      0.1115269107E+02
          0                 2           2             4    7     1      -0.1866173268E+01       5    8    1        -0.1004989067E+03      0.2458197298E+03
          0                 3           2             4    7     1       0.1270603668E+00       5    8    1         0.7032760106E+01      0.1735694015E+02
          0                 4           2             4    7     1      -0.5055942775E-02       5    8    1        -0.2875274400E+00      0.7213984701E+00
          0                 5           1             4    7     1       0.6234181387E-04       4   13    1        -0.3789970006E-02      0.1118202976E-01

    ------------------------------------------------
       NWT REQUIRED            5 OUTER ITERATIONS 
       AND A TOTAL OF          9 INNER ITERATIONS.
    ------------------------------------------------

 NO OUTPUT CONTROL FOR STRESS PERIOD   30   TIME STEP   17
 
 SOLVING FOR HEAD 
                                                   Max.-Head-Change                         Max.-Flux-Residual
  Residual-Control   Outer-Iter.   Inner-Iter.     Column Row Layer    Maximum-Head-Change  Column Row Layer    Maximum-Flux-Residual          L2-NORM 
          0                 1           2             5    8     1       0.1403249946E+00       5    8    1         0.7709189665E+01      0.1689990785E+02
          0                 2           2             5    8     1      -0.1364948108E-01       5    8    1        -0.7708971302E+00      0.1727841625E+01
          0                 3           2             5    8     1       0.9294821401E-03       5    8    1         0.5396302935E-01      0.1209281160E+00
          0                 4           1             5    8     1      -0.3698495034E-04       5    8    1        -0.2207090012E-02      0.4944538305E-02

    ------------------------------------------------
       NWT REQUIRED            4 OUTER ITERATIONS 
       AND A TOTAL OF          7 INNER ITERATIONS.
    ------------------------------------------------

 NO OUTPUT CONTROL FOR STRESS PERIOD   30   TIME STEP   18
 
 SOLVING FOR HEAD 
                                                   Max.-Head-Change                         Max.-Flux-Residual
  Residual-Control   Outer-Iter.   Inner-Iter.     Column Row Layer    Maximum-Head-Change  Column Row Layer    Maximum-Flux-Residual          L2-NORM 
          0                 1           2             5    8     1       0.1328498439E+00       5    8    1         0.7292092373E+01      0.1613544283E+02
          0                 2           2             5    8     1      -0.1292238713E-01       5    8    1        -0.7291898045E+00      0.1613315417E+01
          0                 3           2             5    8     1       0.8799694016E-03       5    8    1         0.5104349256E-01      0.1129194998E+00
          0                 4           1             5    8     1      -0.3501479371E-04       5    8    1        -0.2087680904E-02      0.4617568358E-02

    ------------------------------------------------
       NWT REQUIRED            4 OUTER ITERATIONS 
       AND A TOTAL OF          7 INNER ITERATIONS.
    ------------------------------------------------

 NO OUTPUT CONTROL FOR STRESS PERIOD   30   TIME STEP   19
 
 SOLVING FOR HEAD 
                                                   Max.-Head-Change                         Max.-Flux-Residual
  Residual-Control   Outer-Iter.   Inner-Iter.     Column Row Layer    Maximum-Head-Change  Column Row Layer    Maximum-Flux-Residual          L2-NORM 
          0                 1           2             5    8     1       0.1258834200E+00       5    8    1         0.6903646429E+01      0.1542429077E+02
          0                 2           2             5    8     1      -0.1224477378E-01       5    8    1        -0.6903472866E+00      0.1542227687E+01
          0                 3           2             5    8     1       0.8338261541E-03       5    8    1         0.4832449547E-01      0.1079450342E+00
          0                 4           1             5    8     1      -0.3317871214E-04       5    8    1        -0.1976473858E-02      0.4414199508E-02

    ------------------------------------------------
       NWT REQUIRED            4 OUTER ITERATIONS 
       AND A TOTAL OF          7 INNER ITERATIONS.
    ------------------------------------------------

 NO OUTPUT CONTROL FOR STRESS PERIOD   30   TIME STEP   20
 
 SOLVING FOR HEAD 
                                                   Max.-Head-Change                         Max.-Flux-Residual
  Residual-Control   Outer-Iter.   Inner-Iter.     Column Row Layer    Maximum-Head-Change  Column Row Layer    Maximum-Flux-Residual          L2-NORM 
          0                 1           2             5    8     1       0.1193865983E+00       5    8    1         0.6541631895E+01      0.1475911173E+02
          0                 2           2             5    8     1      -0.1161283534E-01       5    8    1        -0.6541475962E+00      0.1475696795E+01
          0                 3           2             5    8     1       0.7907932366E-03       5    8    1         0.4579049904E-01      0.1032892674E+00
          0                 4           1             5    8     1      -0.3146639321E-04       5    8    1        -0.1872833337E-02      0.4223927355E-02

    ------------------------------------------------
       NWT REQUIRED            4 OUTER ITERATIONS 
       AND A TOTAL OF          7 INNER ITERATIONS.
    ------------------------------------------------

 NO OUTPUT CONTROL FOR STRESS PERIOD   30   TIME STEP   21
 
 SOLVING FOR HEAD 
                                                   Max.-Head-Change                         Max.-Flux-Residual
  Residual-Control   Outer-Iter.   Inner-Iter.     Column Row Layer    Maximum-Head-Change  Column Row Layer    Maximum-Flux-Residual          L2-NORM 
          0                 1           2             5    8     1       0.1133235988E+00       5    8    1         0.6204020230E+01      0.1413634008E+02
          0                 2           2             5    8     1      -0.1109239034E-01       5    8    1        -0.6242037404E+00      0.1421046045E+01
          0                 3           2             5    8     1       0.6660579999E-03       5    8    1         0.3864006729E-01      0.8973875370E-01
          0                 4           1             5    8     1      -0.8208034276E-04       5    8    1        -0.4813890404E-02      0.1119187215E-01

    ------------------------------------------------
       NWT REQUIRED            4 OUTER ITERATIONS 
       AND A TOTAL OF          7 INNER ITERATIONS.
    ------------------------------------------------

 NO OUTPUT CONTROL FOR STRESS PERIOD   30   TIME STEP   22
 
 SOLVING FOR HEAD 
                                                   Max.-Head-Change                         Max.-Flux-Residual
  Residual-Control   Outer-Iter.   Inner-Iter.     Column Row Layer    Maximum-Head-Change  Column Row Layer    Maximum-Flux-Residual          L2-NORM 
          0                 1           2             5    8     1       0.1076681571E+00       5    8    1         0.5889313258E+01      0.1355366386E+02
          0                 2           2             4    7     1      -0.1867974164E+01       5    8    1        -0.1005889187E+03      0.2460508773E+03
          0                 3           2             4    7     1       0.1271829814E+00       5    8    1         0.7039088347E+01      0.1737127791E+02
          0                 4           2             4    7     1      -0.5060821781E-02       5    8    1        -0.2877886301E+00      0.7229235568E+00
          0                 5           1             4    7     1       0.6240197391E-04       4   13    1        -0.3769841697E-02      0.1128629139E-01

    ------------------------------------------------
       NWT REQUIRED            5 OUTER ITERATIONS 
       AND A TOTAL OF          9 INNER ITERATIONS.
    ------------------------------------------------

 NO OUTPUT CONTROL FOR STRESS PERIOD   30   TIME STEP   23
 
 SOLVING FOR HEAD 
                                                   Max.-Head-Change                         Max.-Flux-Residual
  Residual-Control   Outer-Iter.   Inner-Iter.     Column Row Layer    Maximum-Head-Change  Column Row Layer    Maximum-Flux-Residual          L2-NORM 
          0                 1           2             5    8     1       0.1563775159E+00       5    8    1         0.8575160101E+01      0.1918288746E+02
          0                 2           2             5    8     1      -0.1521087881E-01       5    8    1        -0.8574889917E+00      0.1951422093E+01
          0                 3           2             5    8     1       0.1035808269E-02       5    8    1         0.6002451127E-01      0.1365884492E+00
          0                 4           1             5    8     1      -0.4121576313E-04       5    8    1        -0.2455004757E-02      0.5585741909E-02

    ------------------------------------------------
       NWT REQUIRED            4 OUTER ITERATIONS 
       AND A TOTAL OF          7 INNER ITERATIONS.
    ------------------------------------------------

 NO OUTPUT CONTROL FOR STRESS PERIOD   30   TIME STEP   24
 
 SOLVING FOR HEAD 
                                                   Max.-Head-Change                         Max.-Flux-Residual
  Residual-Control   Outer-Iter.   Inner-Iter.     Column Row Layer    Maximum-Head-Change  Column Row Layer    Maximum-Flux-Residual          L2-NORM 
          0                 1           2             5    8     1       0.1483231504E+00       5    8    1         0.8126233928E+01      0.1836182117E+02
          0                 2           2             5    8     1      -0.1442745358E-01       5    8    1        -0.8125991621E+00      0.1835836560E+01
          0                 3           2             5    8     1       0.9824595251E-03       5    8    1         0.5688219548E-01      0.1285013926E+00
          0                 4           1             5    8     1      -0.3909296837E-04       5    8    1        -0.2326483977E-02      0.5255234478E-02

    ------------------------------------------------
       NWT REQUIRED            4 OUTER ITERATIONS 
       AND A TOTAL OF          7 INNER ITERATIONS.
    ------------------------------------------------

 NO OUTPUT CONTROL FOR STRESS PERIOD   30   TIME STEP   25
 
 SOLVING FOR HEAD 
                                                   Max.-Head-Change                         Max.-Flux-Residual
  Residual-Control   Outer-Iter.   Inner-Iter.     Column Row Layer    Maximum-Head-Change  Column Row Layer    Maximum-Flux-Residual          L2-NORM 
          0                 1           2             5    8     1       0.1408086364E+00       5    8    1         0.7707688387E+01      0.1759633886E+02
          0                 2           2             5    8     1      -0.1369652603E-01       5    8    1        -0.7707470309E+00      0.1759466917E+01
          0                 3           2             5    8     1       0.9326857285E-03       5    8    1         0.5395252213E-01      0.1231564446E+00
          0                 4           1             5    8     1      -0.3711242365E-04       5    8    1        -0.2206660253E-02      0.5036673517E-02

    ------------------------------------------------
       NWT REQUIRED            4 OUTER ITERATIONS 
       AND A TOTAL OF          7 INNER ITERATIONS.
    ------------------------------------------------

 NO OUTPUT CONTROL FOR STRESS PERIOD   30   TIME STEP   26
 
 SOLVING FOR HEAD 
                                                   Max.-Head-Change                         Max.-Flux-Residual
  Residual-Control   Outer-Iter.   Inner-Iter.     Column Row Layer    Maximum-Head-Change  Column Row Layer    Maximum-Flux-Residual          L2-NORM 
          0                 1           2             5    8     1       0.1337929327E+00       5    8    1         0.7317196147E+01      0.1687927798E+02
          0                 2           2             5    8     1      -0.1301411903E-01       5    8    1        -0.7316998834E+00      0.1687779888E+01
          0                 3           2             5    8     1       0.8862160454E-03       5    8    1         0.5121920063E-01      0.1181392197E+00
          0                 4           1             5    8     1      -0.3526335305E-04       5    8    1        -0.2094867349E-02      0.4831517234E-02

    ------------------------------------------------
       NWT REQUIRED            4 OUTER ITERATIONS 
       AND A TOTAL OF          7 INNER ITERATIONS.
    ------------------------------------------------

 NO OUTPUT CONTROL FOR STRESS PERIOD   30   TIME STEP   27
 
 SOLVING FOR HEAD 
                                                   Max.-Head-Change                         Max.-Flux-Residual
  Residual-Control   Outer-Iter.   Inner-Iter.     Column Row Layer    Maximum-Head-Change  Column Row Layer    Maximum-Flux-Residual          L2-NORM 
          0                 1           2             5    8     1       0.1272384736E+00       5    8    1         0.6952628511E+01      0.1620668727E+02
          0                 2           2             5    8     1      -0.1244586980E-01       5    8    1        -0.6990605070E+00      0.1628276709E+01
          0                 3           2             5    8     1       0.7582224117E-03       5    8    1         0.4387996126E-01      0.1039194054E+00
          0                 4           1             5    8     1      -0.8574532573E-04       5    8    1        -0.5028031779E-02      0.1178539399E-01

    ------------------------------------------------
       NWT REQUIRED            4 OUTER ITERATIONS 
       AND A TOTAL OF          7 INNER ITERATIONS.
    ------------------------------------------------

 NO OUTPUT CONTROL FOR STRESS PERIOD   30   TIME STEP   28
 
 SOLVING FOR HEAD 
                                                   Max.-Head-Change                         Max.-Flux-Residual
  Residual-Control   Outer-Iter.   Inner-Iter.     Column Row Layer    Maximum-Head-Change  Column Row Layer    Maximum-Flux-Residual          L2-NORM 
          0                 1           2             5    8     1       0.1211171903E+00       5    8    1         0.6612387116E+01      0.1557593640E+02
          0                 2           2             4    7     1      -0.1869679611E+01       5    8    1        -0.1006612225E+03      0.2462493756E+03
          0                 3           2             4    7     1       0.1272990733E+00       5    8    1         0.7044169423E+01      0.1738401829E+02
          0                 4           2             4    7     1      -0.5065441357E-02       5    8    1        -0.2879980848E+00      0.7234270726E+00
          0                 5           1             4    7     1       0.6245893547E-04       4   13    1        -0.3758122455E-02      0.1130044276E-01

    ------------------------------------------------
       NWT REQUIRED            5 OUTER ITERATIONS 
       AND A TOTAL OF          9 INNER ITERATIONS.
    ------------------------------------------------

 NO OUTPUT CONTROL FOR STRESS PERIOD   30   TIME STEP   29
 
 SOLVING FOR HEAD 
                                                   Max.-Head-Change                         Max.-Flux-Residual
  Residual-Control   Outer-Iter.   Inner-Iter.     Column Row Layer    Maximum-Head-Change  Column Row Layer    Maximum-Flux-Residual          L2-NORM 
          0                 1           2             5    8     1       0.1693741235E+00       5    8    1         0.9273382349E+01      0.2109446820E+02
          0                 2           2             5    8     1      -0.1647502861E-01       5    8    1        -0.9273066643E+00      0.2139540744E+01
          0                 3           2             5    8     1       0.1121892826E-02       5    8    1         0.6491179354E-01      0.1497600488E+00
          0                 4           1             5    8     1      -0.4464114519E-04       5    8    1        -0.2654894669E-02      0.6124657038E-02

    ------------------------------------------------
       NWT REQUIRED            4 OUTER ITERATIONS 
       AND A TOTAL OF          7 INNER ITERATIONS.
    ------------------------------------------------

 NO OUTPUT CONTROL FOR STRESS PERIOD   30   TIME STEP   30



 STREAM LISTING     PERIOD     30   STEP       30

 LAYER ROW COL. STREAM  RCH.  FLOW INTO     FLOW TO   FLOW OUT OF   OVRLND.     DIRECT     STREAM       STREAM     STREAM     STREAM   STREAMBED  STREAMBED
                SEG.NO.  NO.  STRM. RCH.    AQUIFER    STRM. RCH.    RUNOFF     PRECIP       ET          HEAD       DEPTH      WIDTH   CONDCTNC.   GRADIENT

   1    1    1     1     1    7.4248E+01  4.1988E-01   7.3828E+01  0.000E+00  0.000E+00  0.000E+00  1.09474E+03  1.690E+00  1.990E+01  8.954E-02  1.563E+00
   1    2    2     1     2    7.3828E+01  6.5043E-01   7.3177E+01  0.000E+00  0.000E+00  0.000E+00  1.08974E+03  1.684E+00  1.984E+01  1.389E-01  1.561E+00
   1    3    3     1     3    7.3177E+01  5.5489E-01   7.2623E+01  0.000E+00  0.000E+00  0.000E+00  1.08410E+03  1.677E+00  1.977E+01  1.186E-01  1.559E+00
   1    3    4     1     4    7.2623E+01  5.1112E-01   7.2111E+01  0.000E+00  0.000E+00  0.000E+00  1.07908E+03  1.671E+00  1.972E+01  1.094E-01  1.557E+00
   1    4    5     2     1    7.0111E+01  4.0856E-01   6.9703E+01  0.000E+00  0.000E+00  0.000E+00  1.07417E+03  2.238E+00  1.200E+01  7.800E-02  1.746E+00
   1    5    6     2     2    6.9703E+01  3.1386E-01   6.9389E+01  0.000E+00  0.000E+00  0.000E+00  1.06874E+03  2.231E+00  1.200E+01  6.000E-02  1.744E+00
   1    6    6     2     3    6.9389E+01  3.1350E-01   6.9075E+01  0.000E+00  0.000E+00  0.000E+00  1.06402E+03  2.225E+00  1.200E+01  6.000E-02  1.742E+00
   1    7    6     2     4    6.9075E+01  3.1314E-01   6.8762E+01  0.000E+00  0.000E+00  0.000E+00  1.05929E+03  2.219E+00  1.200E+01  6.000E-02  1.740E+00
   1    8    6     2     5    6.8762E+01  3.1277E-01   6.8450E+01  0.000E+00  0.000E+00  0.000E+00  1.05457E+03  2.213E+00  1.200E+01  6.000E-02  1.738E+00
   1    3    5     3     1    2.0000E+00  2.8252E-01   1.7175E+00  0.000E+00  0.000E+00  0.000E+00  1.07555E+03  1.909E+00  9.636E+00  7.227E-02  1.955E+00
   1    3    6     3     2    1.7175E+00  2.4905E-01   1.4684E+00  0.000E+00  0.000E+00  0.000E+00  1.07264E+03  1.727E+00  8.909E+00  6.682E-02  1.864E+00
   1    3    7     3     3    1.4684E+00  1.9718E-01   1.2712E+00  0.000E+00  0.000E+00  0.000E+00  1.06987E+03  1.555E+00  8.218E+00  5.547E-02  1.777E+00
   1    4    8     3     4    1.2712E+00  2.2567E-01   1.0456E+00  0.000E+00  0.000E+00  0.000E+00  1.06682E+03  1.364E+00  7.455E+00  6.709E-02  1.682E+00
   1    5    8     3     5    1.0456E+00  1.5790E-01   8.8768E-01  0.000E+00  0.000E+00  0.000E+00  1.06362E+03  1.164E+00  6.655E+00  4.991E-02  1.582E+00
   1    6    8     3     6    8.8768E-01  5.5980E-02   8.3170E-01  0.000E+00  0.000E+00  0.000E+00  1.06158E+03  1.036E+00  6.145E+00  1.844E-02  1.518E+00
   1    5   10     4     1    1.0000E+01  9.0919E-02   9.9091E+00  0.000E+00  0.000E+00  0.000E+00  1.07836E+03  6.368E-01  1.000E+01  2.500E-02  1.212E+00
   1    5    9     4     2    9.9091E+00  1.8158E-01   9.7275E+00  0.000E+00  0.000E+00  0.000E+00  1.07154E+03  6.315E-01  1.000E+01  5.000E-02  1.211E+00
   1    6    8     4     3    9.7275E+00  1.2689E-01   9.6006E+00  0.000E+00  0.000E+00  0.000E+00  1.06381E+03  6.256E-01  1.000E+01  3.500E-02  1.209E+00
   1    6    8     5     1    1.0432E+01  2.2686E-01   1.0205E+01  0.000E+00  0.000E+00  0.000E+00  1.05868E+03  6.790E-01  1.542E+01  6.166E-02  1.226E+00
   1    7    7     5     2    1.0205E+01  2.7894E-01   9.9265E+00  0.000E+00  0.000E+00  0.000E+00  1.05417E+03  6.732E-01  1.519E+01  7.594E-02  1.224E+00
   1    8    7     5     3    9.9265E+00  1.9221E-01   9.7343E+00  0.000E+00  0.000E+00  0.000E+00  1.04992E+03  6.676E-01  1.497E+01  5.241E-02  1.223E+00
   1    8    6     5     4    9.7343E+00  1.3577E-01   9.5985E+00  0.000E+00  0.000E+00  0.000E+00  1.04691E+03  6.637E-01  1.482E+01  3.706E-02  1.221E+00
   1    9    6     6     1    7.8048E+01  3.2488E-01   7.7723E+01  0.000E+00  0.000E+00  0.000E+00  1.04514E+03  2.415E+00  1.200E+01  6.000E-02  1.805E+00
   1   10    7     6     2    7.7723E+01  3.2451E-01   7.7399E+01  0.000E+00  0.000E+00  0.000E+00  1.04059E+03  2.409E+00  1.200E+01  6.000E-02  1.803E+00
   1   11    7     6     3    7.7399E+01  3.2415E-01   7.7075E+01  0.000E+00  0.000E+00  0.000E+00  1.03604E+03  2.403E+00  1.200E+01  6.000E-02  1.801E+00
   1   12    7     6     4    7.7075E+01  3.2379E-01   7.6751E+01  0.000E+00  0.000E+00  0.000E+00  1.03149E+03  2.396E+00  1.200E+01  6.000E-02  1.799E+00
   1   13    7     6     5    7.6751E+01  3.6321E-02   7.6714E+01  0.000E+00  0.000E+00  0.000E+00  1.02830E+03  2.393E+00  1.200E+01  2.400E-02  5.045E-01
   1   14    9     7     1    1.5000E+02  1.3630E+00   1.4864E+02  0.000E+00  0.000E+00  0.000E+00  1.03987E+03  2.288E+00  5.529E+01  5.593E-01  8.124E-01
   1   13    8     7     2    1.4864E+02  1.9325E+00   1.4670E+02  0.000E+00  0.000E+00  0.000E+00  1.03478E+03  2.279E+00  5.525E+01  6.148E-01  1.048E+00
   1   13    7     7     3    1.4670E+02  1.6193E+00   1.4509E+02  0.000E+00  0.000E+00  0.000E+00  1.02969E+03  2.269E+00  5.521E+01  5.584E-01  9.667E-01
   1   13    6     8     1    2.2180E+02  1.2868E+00   2.2051E+02  0.000E+00  0.000E+00  0.000E+00  1.02513E+03  3.258E+00  4.725E+01  4.814E-01  8.909E-01
   1   13    5     8     2    2.2051E+02  4.3256E-01   2.2008E+02  0.000E+00  0.000E+00  0.000E+00  1.01888E+03  3.254E+00  4.718E+01  4.807E-01  2.999E-01
   1   13    4     8     3    2.2008E+02 -1.5557E+00   2.2164E+02  0.000E+00  0.000E+00  0.000E+00  1.01263E+03  3.257E+00  4.722E+01  4.812E+00 -1.078E-01
   1   13    3     8     4    2.2164E+02 -3.0378E+00   2.2467E+02  0.000E+00  0.000E+00  0.000E+00  1.00639E+03  3.269E+00  4.740E+01  4.831E+00 -2.096E-01
   1   13    2     8     5    2.2467E+02 -2.1346E+00   2.2681E+02  0.000E+00  0.000E+00  0.000E+00  1.00016E+03  3.283E+00  4.761E+01  4.852E+00 -1.467E-01
   1   13    1     8     6    2.2681E+02 -1.7174E+00   2.2853E+02  0.000E+00  0.000E+00  0.000E+00  9.95169E+02  3.294E+00  4.776E+01  2.920E+00 -1.960E-01
   1    8    6     9     1    8.8528E-07  0.0000E+00   8.8528E-07  0.000E+00  0.000E+00  0.000E+00  1.07875E+03  1.118E-04  4.000E+00  0.000E+00  1.000E+00
   1    8    5     9     2    8.8528E-07  0.0000E+00   8.8528E-07  0.000E+00  0.000E+00  0.000E+00  1.07825E+03  1.118E-04  4.000E+00  0.000E+00  1.000E+00





UNSATURATED ZONE PACKAGE VOLUMETRIC BUDGET FOR  TIME STEP    30 STRESS PERIOD   30
  ------------------------------------------------------------------------------



     CUMULATIVE VOLUMES      L**3       RATES FOR THIS TIME STEP      L**3/T
     ------------------                 ------------------------

           IN:                                      IN:
           ---                                      ---
        INFILTRATION =  6382896184.1309          INFILTRATION =           0.8475

          OUT:                                     OUT:
          ----                                     ----
              UZF ET =   894169526.2518                UZF ET =           8.3175
        UZF RECHARGE =  4797167659.7810          UZF RECHARGE =       0.0000E+00

            IN - OUT =   691558998.0981              IN - OUT =          -7.4700

          STORAGE:                                 STORAGE:
          --------                                 --------
      STORAGE CHANGE =   692820291.4043        STORAGE CHANGE =          -6.5790

 PERCENT DISCREPANCY IS DIFFERENCE BETWEEN IN-OUT MINUS CHANGE IN STORAGE
 DIVIDED BY THE AVERAGE OF IN AND OUT TIMES 100

 PERCENT DISCREPANCY =          -0.00     PERCENT DISCREPANCY =         -10.71






1
  VOLUMETRIC BUDGET FOR AGRICULTURAL FIELDS AT  END OF TIME STEP   30, STRESS PERIOD  30
  ------------------------------------------------------------------------------

     CUMULATIVE VOLUMES      L**3       RATES FOR THIS TIME STEP      L**3/T
     ------------------                 ------------------------

           IN:                                      IN:
           ---                                      ---
               AG WELLS  =  5697162240.0000                 AG WELLS  =       2.2132E-07
      DIVERSION SEGMENTS =   621049984.0000        DIVERSION SEGMENTS =       8.8528E-07
       IRRIGATION PONDS  =           0.0000         IRRIGATION PONDS  =           0.0000
           GW IRRIGATION =           0.0000             GW IRRIGATION =           0.0000
           SW IRRIGATION =           0.0000             SW IRRIGATION =           0.0000
        SYSTEM LOSSES GW =           0.0000          SYSTEM LOSSES GW =           0.0000
        SYSTEM LOSSES SW =           0.0000          SYSTEM LOSSES SW =           0.0000

                TOTAL IN =  6318212096.0000                  TOTAL IN =       1.1066E-06

          OUT:                                     OUT:
          ----                                     ----
               AG WELLS  =           0.0000                 AG WELLS  =           0.0000
      DIVERSION SEGMENTS =           0.0000        DIVERSION SEGMENTS =           0.0000
       IRRIGATION PONDS  =           0.0000         IRRIGATION PONDS  =           0.0000
           GW IRRIGATION =  5697162240.0000             GW IRRIGATION =       2.2132E-07
           SW IRRIGATION =   621062464.0000             SW IRRIGATION =       8.8530E-07
        SYSTEM LOSSES GW =           0.0000          SYSTEM LOSSES GW =           0.0000
        SYSTEM LOSSES SW =           0.0000          SYSTEM LOSSES SW =           0.0000

               TOTAL OUT =  6318224896.0000                 TOTAL OUT =       1.1066E-06

                IN - OUT =      -12800.0000                  IN - OUT =      -1.7621E-11

     PERCENT DISCREPANCY =          -0.00         PERCENT DISCREPANCY =          -0.00



1
  VOLUMETRIC BUDGET FOR ENTIRE MODEL AT END OF TIME STEP   30, STRESS PERIOD  30
  ------------------------------------------------------------------------------

     CUMULATIVE VOLUMES      L**3       RATES FOR THIS TIME STEP      L**3/T
     ------------------                 ------------------------

           IN:                                      IN:
           ---                                      ---
             STORAGE     =  5183026688.0000               STORAGE     =          39.6117
       CONSTANT HEAD     =           0.0000         CONSTANT HEAD     =           0.0000
     HEAD DEP BOUNDS     =    21860162.0000       HEAD DEP BOUNDS     =           0.2876
      STREAM LEAKAGE     =   935810560.0000        STREAM LEAKAGE     =          14.1675
        UZF RECHARGE     =  4797168640.0000          UZF RECHARGE     =           0.0000
               GW ET     =           0.0000                 GW ET     =           0.0000
     SURFACE LEAKAGE     =           0.0000       SURFACE LEAKAGE     =           0.0000
           AG WELLS      =           0.0000             AG WELLS      =           0.0000

                TOTAL IN = 10937866240.0000                  TOTAL IN =          54.0667

          OUT:                                     OUT:
          ----                                     ----
             STORAGE     =  4432914944.0000               STORAGE     =          45.2687
       CONSTANT HEAD     =           0.0000         CONSTANT HEAD     =           0.0000
     HEAD DEP BOUNDS     =    22191716.0000       HEAD DEP BOUNDS     =           0.2948
      STREAM LEAKAGE     =   784107392.0000        STREAM LEAKAGE     =           8.4456
        UZF RECHARGE     =           0.0000          UZF RECHARGE     =           0.0000
               GW ET     =     1384516.5000                 GW ET     =       5.7651E-02
     SURFACE LEAKAGE     =           0.0000       SURFACE LEAKAGE     =           0.0000
           AG WELLS      =  5697162240.0000             AG WELLS      =       2.2132E-07

               TOTAL OUT = 10937760768.0000                 TOTAL OUT =          54.0667

                IN - OUT =      105472.0000                  IN - OUT =       3.8147E-05

     PERCENT DISCREPANCY =           0.00         PERCENT DISCREPANCY =           0.00






         TIME SUMMARY AT END OF TIME STEP   30 IN STRESS PERIOD   30
                    SECONDS     MINUTES      HOURS       DAYS        YEARS
                    -----------------------------------------------------------
   TIME STEP LENGTH  87667.      1461.1      24.352      1.0147     2.77799E-03
 STRESS PERIOD TIME 2.63000E+06  43833.      730.56      30.440     8.33397E-02
         TOTAL TIME 7.63565E+07 1.27261E+06  21210.      883.76      2.4196    
1
1
                            STRESS PERIOD NO.   31, LENGTH =   2630000.    
                            -----------------------------------------------

                              NUMBER OF TIME STEPS =    30

                               MULTIPLIER FOR DELT =     1.000

                            INITIAL TIME STEP SIZE =   87666.66    

 REUSING NON-PARAMETER GHB CELLS FROM LAST STRESS PERIOD

      2 GHB CELLS

 REUSING STREAM SEGMENT DATA FROM LAST STRESS PERIOD



            AREAL INFILTRATION RATE
 READING ON UNIT   19 WITH FORMAT: (FREE)              

            1           2           3           4           5           6           7           8           9          10
 ........................................................................................................................
   1   1.0000E-10  2.0000E-10   0.000       0.000       0.000       0.000       0.000       0.000       0.000       0.000    
   2   2.0000E-10  1.0000E-10  2.0000E-10   0.000       0.000      8.0000E-10  8.0000E-10  5.0000E-10   0.000       0.000    
   3    0.000      5.0000E-10  1.0000E-10  1.0000E-10  8.0000E-10  8.0000E-10  5.0000E-10  5.0000E-10   0.000       0.000    
   4   8.0000E-10  5.0000E-10  1.0000E-10  1.0000E-10  1.0000E-10  1.0000E-10  1.0000E-10  1.0000E-10  2.0000E-10   0.000    
   5   8.0000E-10  5.0000E-10  1.0000E-10  1.0000E-10  1.0000E-10  1.0000E-10  1.0000E-10  1.0000E-10  1.0000E-10  1.0000E-10
   6   8.0000E-10  5.0000E-10  5.0000E-10  2.0000E-10  2.0000E-10  1.0000E-10  1.0000E-10  1.0000E-10  1.0000E-10  5.0000E-10
   7   8.0000E-10  5.0000E-10  5.0000E-10  2.0000E-10  2.0000E-10  1.0000E-10  1.0000E-10  2.0000E-10  2.0000E-10   0.000    
   8    0.000      5.0000E-10  5.0000E-10  2.0000E-10  2.0000E-10  1.0000E-10  1.0000E-10  2.0000E-10  5.0000E-10   0.000    
   9    0.000      5.0000E-10  5.0000E-10  2.0000E-10  2.0000E-10  1.0000E-10  1.0000E-10  2.0000E-10  5.0000E-10   0.000    
  10    0.000      5.0000E-10  5.0000E-10  2.0000E-10  2.0000E-10  1.0000E-10  1.0000E-10  2.0000E-10  5.0000E-10  8.0000E-10
  11    0.000      1.0000E-10  1.0000E-10  1.0000E-10  1.0000E-10  1.0000E-10  1.0000E-10  2.0000E-10  5.0000E-10   0.000    
  12   1.0000E-10  1.0000E-10  1.0000E-10  1.0000E-10  1.0000E-10  1.0000E-10  1.0000E-10  1.0000E-10  2.0000E-10   0.000    
  13   1.0000E-10  1.0000E-10  2.0000E-10  2.0000E-10  2.0000E-10  2.0000E-10  2.0000E-10  1.0000E-10  1.0000E-10   0.000    
  14    0.000      2.0000E-10  5.0000E-10  5.0000E-10  5.0000E-10  5.0000E-10  5.0000E-10  2.0000E-10  1.0000E-10   0.000    
  15    0.000       0.000      8.0000E-10  8.0000E-10  8.0000E-10  8.0000E-10   0.000       0.000       0.000       0.000    

                  ET RATE =  1.500000E-07

 USING ET EXTINCTION DEPTH FROM PREVIOUS STRESS PERIOD. CURRENT PERIOD IS:      31

 USING EXTINCTION WATER CONTENT FROM PREVIOUS STRESS PERIOD. CURRENT PERIOD IS:      31

 USING AIR ENTRY PRESSURE FROM PREVIOUS STRESS PERIOD. CURRENT PERIOD IS:      31

 USING ROOT PRESSURE HEAD FROM PREVIOUS STRESS PERIOD. CURRENT PERIOD IS:      31

 USING ROOT ACTIVITY FROM PREVIOUS STRESS PERIOD. CURRENT PERIOD IS:      31

 PROCESSING AG STRESS PERIOD DATA

 READING AG STRESS PERIOD DATA

 READING IRRIGATION SEGMENT

 READING IRRIGATION WELL

 READING SUPPLEMENTAL WELL

 NO IRRPOND OR REUSING IRRPOND DATA FROM LAST STRESS PERIOD

 END PROCESSING AG STRESS PERIOD DATA OPTIONS
 
 SOLVING FOR HEAD 
                                                   Max.-Head-Change                         Max.-Flux-Residual
  Residual-Control   Outer-Iter.   Inner-Iter.     Column Row Layer    Maximum-Head-Change  Column Row Layer    Maximum-Flux-Residual          L2-NORM 
          0                 1           2             5    8     1       0.1608996548E+00       5    8    1         0.8801573137E+01      0.2023019082E+02
          0                 2           2             5    8     1      -0.1565073675E-01       5    8    1        -0.8801287386E+00      0.2022886836E+01
          0                 3           2             5    8     1       0.1065761185E-02       5    8    1         0.6160930882E-01      0.1416014886E+00
          0                 4           1             5    8     1      -0.4240761632E-04       5    8    1        -0.2519822981E-02      0.5791373196E-02

    ------------------------------------------------
       NWT REQUIRED            4 OUTER ITERATIONS 
       AND A TOTAL OF          7 INNER ITERATIONS.
    ------------------------------------------------

 NO OUTPUT CONTROL FOR STRESS PERIOD   31   TIME STEP    1
 
 SOLVING FOR HEAD 
                                                   Max.-Head-Change                         Max.-Flux-Residual
  Residual-Control   Outer-Iter.   Inner-Iter.     Column Row Layer    Maximum-Head-Change  Column Row Layer    Maximum-Flux-Residual          L2-NORM 
          0                 1           2             5    8     1       0.1529839708E+00       5    8    1         0.8361194062E+01      0.1942791206E+02
          0                 2           2             4    7     1      -0.1871012025E+01       5    8    1        -0.1008360934E+03      0.2465635313E+03
          0                 3           2             4    7     1       0.1273898573E+00       5    8    1         0.7056899657E+01      0.1735770750E+02
          0                 4           2             4    7     1      -0.5069053017E-02       5    8    1        -0.2885252064E+00      0.7221008739E+00
          0                 5           1             3   13     1      -0.9572085005E-04       3   13    1        -0.6449193112E-02      0.1229497019E-01

    ------------------------------------------------
       NWT REQUIRED            5 OUTER ITERATIONS 
       AND A TOTAL OF          9 INNER ITERATIONS.
    ------------------------------------------------

 NO OUTPUT CONTROL FOR STRESS PERIOD   31   TIME STEP    2
 
 SOLVING FOR HEAD 
                                                   Max.-Head-Change                         Max.-Flux-Residual
  Residual-Control   Outer-Iter.   Inner-Iter.     Column Row Layer    Maximum-Head-Change  Column Row Layer    Maximum-Flux-Residual          L2-NORM 
          0                 1           2             5    8     1       0.1996143449E+00       5    8    1         0.1092928063E+02      0.2479557006E+02
          0                 2           2             5    8     1      -0.8752097430E-01       5    8    1        -0.4842890399E+01      0.1133813569E+02
          0                 3           2             4    7     1       0.7333044818E-01       5    8    1         0.4089001404E+01      0.1000204786E+02
          0                 4           2             4    7     1      -0.2917915480E-02       5    8    1        -0.1672152348E+00      0.4104055582E+00
          0                 5           1             4    7     1       0.3597911711E-04       5    8    1         0.2117324242E-02      0.5475796409E-02

    ------------------------------------------------
       NWT REQUIRED            5 OUTER ITERATIONS 
       AND A TOTAL OF          9 INNER ITERATIONS.
    ------------------------------------------------

 NO OUTPUT CONTROL FOR STRESS PERIOD   31   TIME STEP    3
 
 SOLVING FOR HEAD 
                                                   Max.-Head-Change                         Max.-Flux-Residual
  Residual-Control   Outer-Iter.   Inner-Iter.     Column Row Layer    Maximum-Head-Change  Column Row Layer    Maximum-Flux-Residual          L2-NORM 
          0                 1           2             5    8     1       0.1896205790E+00       5    8    1         0.1037292009E+02      0.2378709111E+02
          0                 2           2             5    8     1      -0.1844423733E-01       5    8    1        -0.1037257150E+01      0.2378811010E+01
          0                 3           2             5    8     1       0.1255989128E-02       5    8    1         0.7260836241E-01      0.1665150729E+00
          0                 4           1             5    8     1      -0.4997696017E-04       5    8    1        -0.2969684637E-02      0.6810259173E-02

    ------------------------------------------------
       NWT REQUIRED            4 OUTER ITERATIONS 
       AND A TOTAL OF          7 INNER ITERATIONS.
    ------------------------------------------------

 NO OUTPUT CONTROL FOR STRESS PERIOD   31   TIME STEP    4
 
 SOLVING FOR HEAD 
     PET DIFF ERROR     6    4    0.2245318269E-08    0.1500000053E-06
     PET DIFF ERROR     6    5    0.2245318269E-08    0.1500000053E-06
     PET DIFF ERROR     7    4    0.2245311694E-08    0.1500000053E-06
     PET DIFF ERROR     7    5    0.2245318220E-08    0.1500000053E-06
     PET DIFF ERROR     8    4    0.2245311694E-08    0.1500000053E-06
     PET DIFF ERROR     8    5    0.2245318269E-08    0.1500000053E-06
                                                   Max.-Head-Change                         Max.-Flux-Residual
  Residual-Control   Outer-Iter.   Inner-Iter.     Column Row Layer    Maximum-Head-Change  Column Row Layer    Maximum-Flux-Residual          L2-NORM 
          0                 1           2             5    8     1       0.1802876368E+00       5    8    1         0.9853645656E+01      0.2284066770E+02
     PET DIFF ERROR     6    4    0.2245318269E-08    0.1500000053E-06
     PET DIFF ERROR     6    5    0.2245318269E-08    0.1500000053E-06
     PET DIFF ERROR     7    4    0.2245311694E-08    0.1500000053E-06
     PET DIFF ERROR     7    5    0.2245318220E-08    0.1500000053E-06
     PET DIFF ERROR     8    4    0.2245311694E-08    0.1500000053E-06
     PET DIFF ERROR     8    5    0.2245318269E-08    0.1500000053E-06
          0                 2           2             5    8     1      -0.1753650184E-01       5    8    1        -0.9853323291E+00      0.2283970187E+01
     PET DIFF ERROR     6    4    0.2245318269E-08    0.1500000053E-06
     PET DIFF ERROR     6    5    0.2245318269E-08    0.1500000053E-06
     PET DIFF ERROR     7    4    0.2245311694E-08    0.1500000053E-06
     PET DIFF ERROR     7    5    0.2245318220E-08    0.1500000053E-06
     PET DIFF ERROR     8    4    0.2245311694E-08    0.1500000053E-06
     PET DIFF ERROR     8    5    0.2245318269E-08    0.1500000053E-06
          0                 3           2             5    8     1       0.1194175344E-02       5    8    1         0.6897359816E-01      0.1598771827E+00
     PET DIFF ERROR     6    4    0.2245318269E-08    0.1500000053E-06
     PET DIFF ERROR     6    5    0.2245318269E-08    0.1500000053E-06
     PET DIFF ERROR     7    4    0.2245311694E-08    0.1500000053E-06
     PET DIFF ERROR     7    5    0.2245318220E-08    0.1500000053E-06
     PET DIFF ERROR     8    4    0.2245311694E-08    0.1500000053E-06
     PET DIFF ERROR     8    5    0.2245318269E-08    0.1500000053E-06
          0                 4           1             5    8     1      -0.4751733336E-04       5    8    1        -0.2821022673E-02      0.6538860248E-02

    ------------------------------------------------
       NWT REQUIRED            4 OUTER ITERATIONS 
       AND A TOTAL OF          7 INNER ITERATIONS.
    ------------------------------------------------

 NO OUTPUT CONTROL FOR STRESS PERIOD   31   TIME STEP    5
     PET DIFF ERROR     6    4    0.2245318269E-08    0.1500000053E-06
     PET DIFF ERROR     6    5    0.2245318269E-08    0.1500000053E-06
     PET DIFF ERROR     7    4    0.2245311694E-08    0.1500000053E-06
     PET DIFF ERROR     7    5    0.2245318220E-08    0.1500000053E-06
     PET DIFF ERROR     8    4    0.2245311694E-08    0.1500000053E-06
     PET DIFF ERROR     8    5    0.2245318269E-08    0.1500000053E-06
 
 SOLVING FOR HEAD 
                                                   Max.-Head-Change                         Max.-Flux-Residual
  Residual-Control   Outer-Iter.   Inner-Iter.     Column Row Layer    Maximum-Head-Change  Column Row Layer    Maximum-Flux-Residual          L2-NORM 
          0                 1           2             5    8     1       0.1715650467E+00       5    8    1         0.9368655070E+01      0.2195253838E+02
          0                 2           2             4    7     1      -0.1872601667E+01       5    8    1        -0.1009368357E+03      0.2467917055E+03
          0                 3           2             4    7     1       0.1274982087E+00       5    8    1         0.7063560922E+01      0.1732107030E+02
          0                 4           2             4    7     1      -0.5073364315E-02       5    8    1        -0.2888004195E+00      0.7126560540E+00
          0                 5           1             4    7     1       0.6255663122E-04       5    6    1         0.3653094855E-02      0.1020340329E-01

    ------------------------------------------------
       NWT REQUIRED            5 OUTER ITERATIONS 
       AND A TOTAL OF          9 INNER ITERATIONS.
    ------------------------------------------------

 NO OUTPUT CONTROL FOR STRESS PERIOD   31   TIME STEP    6
 
 SOLVING FOR HEAD 
                                                   Max.-Head-Change                         Max.-Flux-Residual
  Residual-Control   Outer-Iter.   Inner-Iter.     Column Row Layer    Maximum-Head-Change  Column Row Layer    Maximum-Flux-Residual          L2-NORM 
          0                 1           2             5    8     1       0.2174203989E+00       5    8    1         0.1189491253E+02      0.2720788879E+02
          0                 2           2             5    8     1      -0.8925366505E-01       5    8    1        -0.4939445998E+01      0.1157118153E+02
          0                 3           2             4    7     1       0.7343198211E-01       5    8    1         0.4095760418E+01      0.1001780241E+02
          0                 4           2             4    7     1      -0.2921955563E-02       5    8    1        -0.1674936367E+00      0.4119176741E+00
          0                 5           1             4    7     1       0.3602893302E-04       5    8    1         0.2120985702E-02      0.5573237989E-02

    ------------------------------------------------
       NWT REQUIRED            5 OUTER ITERATIONS 
       AND A TOTAL OF          9 INNER ITERATIONS.
    ------------------------------------------------

 NO OUTPUT CONTROL FOR STRESS PERIOD   31   TIME STEP    7
 
 SOLVING FOR HEAD 
                                                   Max.-Head-Change                         Max.-Flux-Residual
  Residual-Control   Outer-Iter.   Inner-Iter.     Column Row Layer    Maximum-Head-Change  Column Row Layer    Maximum-Flux-Residual          L2-NORM 
          0                 1           2             5    8     1       0.2066977972E+00       5    8    1         0.1129815497E+02      0.2612673196E+02
          0                 2           2             5    8     1      -0.2010545232E-01       5    8    1        -0.1129773588E+01      0.2612445475E+01
          0                 3           2             5    8     1       0.1369112701E-02       5    8    1         0.7908458177E-01      0.1828686139E+00
          0                 4           1             5    8     1      -0.5447824844E-04       5    8    1        -0.3234562062E-02      0.7479053453E-02

    ------------------------------------------------
       NWT REQUIRED            4 OUTER ITERATIONS 
       AND A TOTAL OF          7 INNER ITERATIONS.
    ------------------------------------------------

 NO OUTPUT CONTROL FOR STRESS PERIOD   31   TIME STEP    8
 
 SOLVING FOR HEAD 
     PET DIFF ERROR     6    4    0.2245318255E-08    0.1500000053E-06
     PET DIFF ERROR     6    5    0.2245311694E-08    0.1500000053E-06
     PET DIFF ERROR     7    4    0.2245318269E-08    0.1500000053E-06
     PET DIFF ERROR     7    5    0.2245311694E-08    0.1500000053E-06
     PET DIFF ERROR     8    4    0.2245311694E-08    0.1500000053E-06
     PET DIFF ERROR     8    5    0.2245314982E-08    0.1500000053E-06
                                                   Max.-Head-Change                         Max.-Flux-Residual
  Residual-Control   Outer-Iter.   Inner-Iter.     Column Row Layer    Maximum-Head-Change  Column Row Layer    Maximum-Flux-Residual          L2-NORM 
          0                 1           2             5    8     1       0.5299021984E+00       5    8    1         0.2912744735E+02      0.3692691637E+02
     PET DIFF ERROR     6    4    0.2245318255E-08    0.1500000053E-06
     PET DIFF ERROR     6    5    0.2245311694E-08    0.1500000053E-06
     PET DIFF ERROR     7    4    0.2245318269E-08    0.1500000053E-06
     PET DIFF ERROR     7    5    0.2245311694E-08    0.1500000053E-06
     PET DIFF ERROR     8    4    0.2245311694E-08    0.1500000053E-06
     PET DIFF ERROR     8    5    0.2245314982E-08    0.1500000053E-06
          0                 2           2             5    8     1       0.2352171288E+00       5    8    1         0.1299069565E+02      0.1318741128E+02
     PET DIFF ERROR     6    4    0.2245318255E-08    0.1500000053E-06
     PET DIFF ERROR     6    5    0.2245311694E-08    0.1500000053E-06
     PET DIFF ERROR     7    4    0.2245318269E-08    0.1500000053E-06
     PET DIFF ERROR     7    5    0.2245311694E-08    0.1500000053E-06
     PET DIFF ERROR     8    4    0.2245311694E-08    0.1500000053E-06
     PET DIFF ERROR     8    5    0.2245314982E-08    0.1500000053E-06
          0                 3           2             5    8     1       0.1044063750E+00       5    8    1         0.5760314788E+01      0.5762572075E+01
     PET DIFF ERROR     6    4    0.2245318255E-08    0.1500000053E-06
     PET DIFF ERROR     6    5    0.2245311694E-08    0.1500000053E-06
     PET DIFF ERROR     7    4    0.2245318269E-08    0.1500000053E-06
     PET DIFF ERROR     7    5    0.2245311694E-08    0.1500000053E-06
     PET DIFF ERROR     8    4    0.2245311694E-08    0.1500000053E-06
     PET DIFF ERROR     8    5    0.2245314982E-08    0.1500000053E-06
          0                 4           2             5    8     1       0.4634328413E-01       5    8    1         0.2557191493E+01      0.2557206598E+01
     PET DIFF ERROR     6    4    0.2245318255E-08    0.1500000053E-06
     PET DIFF ERROR     6    5    0.2245311694E-08    0.1500000053E-06
     PET DIFF ERROR     7    4    0.2245318269E-08    0.1500000053E-06
     PET DIFF ERROR     7    5    0.2245311694E-08    0.1500000053E-06
     PET DIFF ERROR     8    4    0.2245311694E-08    0.1500000053E-06
     PET DIFF ERROR     8    5    0.2245314982E-08    0.1500000053E-06
          0                 5           2             5    8     1       0.2057058426E-01       5    8    1         0.1135079776E+01      0.1135084398E+01
     PET DIFF ERROR     6    4    0.2245318255E-08    0.1500000053E-06
     PET DIFF ERROR     6    5    0.2245311694E-08    0.1500000053E-06
     PET DIFF ERROR     7    4    0.2245318269E-08    0.1500000053E-06
     PET DIFF ERROR     7    5    0.2245311694E-08    0.1500000053E-06
     PET DIFF ERROR     8    4    0.2245311694E-08    0.1500000053E-06
     PET DIFF ERROR     8    5    0.2245314982E-08    0.1500000053E-06
          0                 6           2             5    8     1       0.9130751146E-02       5    8    1         0.5038330804E+00      0.5038350922E+00
     PET DIFF ERROR     6    4    0.2245318255E-08    0.1500000053E-06
     PET DIFF ERROR     6    5    0.2245311694E-08    0.1500000053E-06
     PET DIFF ERROR     7    4    0.2245318269E-08    0.1500000053E-06
     PET DIFF ERROR     7    5    0.2245311694E-08    0.1500000053E-06
     PET DIFF ERROR     8    4    0.2245311694E-08    0.1500000053E-06
     PET DIFF ERROR     8    5    0.2245314982E-08    0.1500000053E-06
          0                 7           1             5    8     1       0.4052904868E-02       5    8    1         0.2236389052E+00      0.2236397944E+00
     PET DIFF ERROR     6    4    0.2245318255E-08    0.1500000053E-06
     PET DIFF ERROR     6    5    0.2245311694E-08    0.1500000053E-06
     PET DIFF ERROR     7    4    0.2245318269E-08    0.1500000053E-06
     PET DIFF ERROR     7    5    0.2245311694E-08    0.1500000053E-06
     PET DIFF ERROR     8    4    0.2245311694E-08    0.1500000053E-06
     PET DIFF ERROR     8    5    0.2245314982E-08    0.1500000053E-06
          0                 8           1             5    8     1       0.1798979955E-02       5    8    1         0.9926759252E-01      0.9926798732E-01
     PET DIFF ERROR     6    4    0.2245318255E-08    0.1500000053E-06
     PET DIFF ERROR     6    5    0.2245311694E-08    0.1500000053E-06
     PET DIFF ERROR     7    4    0.2245318269E-08    0.1500000053E-06
     PET DIFF ERROR     7    5    0.2245311694E-08    0.1500000053E-06
     PET DIFF ERROR     8    4    0.2245311694E-08    0.1500000053E-06
     PET DIFF ERROR     8    5    0.2245314982E-08    0.1500000053E-06
          0                 9           1             5    8     1       0.7985208187E-03       5    8    1         0.4406233762E-01      0.4406251273E-01
     PET DIFF ERROR     6    4    0.2245318255E-08    0.1500000053E-06
     PET DIFF ERROR     6    5    0.2245311694E-08    0.1500000053E-06
     PET DIFF ERROR     7    4    0.2245318269E-08    0.1500000053E-06
     PET DIFF ERROR     7    5    0.2245311694E-08    0.1500000053E-06
     PET DIFF ERROR     8    4    0.2245311694E-08    0.1500000053E-06
     PET DIFF ERROR     8    5    0.2245314982E-08    0.1500000053E-06
          0                10           1             5    8     1       0.3544428045E-03       5    8    1         0.1955813823E-01      0.1955821593E-01
     PET DIFF ERROR     6    4    0.2245318255E-08    0.1500000053E-06
     PET DIFF ERROR     6    5    0.2245311694E-08    0.1500000053E-06
     PET DIFF ERROR     7    4    0.2245318269E-08    0.1500000053E-06
     PET DIFF ERROR     7    5    0.2245311694E-08    0.1500000053E-06
     PET DIFF ERROR     8    4    0.2245311694E-08    0.1500000053E-06
     PET DIFF ERROR     8    5    0.2245314982E-08    0.1500000053E-06
                                                   Max.-Head-Change                         Max.-Flux-Residual
  Residual-Control   Outer-Iter.   Inner-Iter.     Column Row Layer    Maximum-Head-Change  Column Row Layer    Maximum-Flux-Residual          L2-NORM 
          0                11           1             5    8     1       0.1573280235E-03       5    8    1         0.8681353957E-02      0.8681388435E-02
     PET DIFF ERROR     6    4    0.2245318255E-08    0.1500000053E-06
     PET DIFF ERROR     6    5    0.2245311694E-08    0.1500000053E-06
     PET DIFF ERROR     7    4    0.2245318269E-08    0.1500000053E-06
     PET DIFF ERROR     7    5    0.2245311694E-08    0.1500000053E-06
     PET DIFF ERROR     8    4    0.2245311694E-08    0.1500000053E-06
     PET DIFF ERROR     8    5    0.2245314982E-08    0.1500000053E-06
          0                12           1             5    8     1       0.6983385356E-04       5    8    1         0.3853429379E-02      0.3853444685E-02

    ------------------------------------------------
       NWT REQUIRED           12 OUTER ITERATIONS 
       AND A TOTAL OF         18 INNER ITERATIONS.
    ------------------------------------------------

 NO OUTPUT CONTROL FOR STRESS PERIOD   31   TIME STEP    9
     PET DIFF ERROR     6    4    0.2245318255E-08    0.1500000053E-06
     PET DIFF ERROR     6    5    0.2245311694E-08    0.1500000053E-06
     PET DIFF ERROR     7    4    0.2245318269E-08    0.1500000053E-06
     PET DIFF ERROR     7    5    0.2245311694E-08    0.1500000053E-06
     PET DIFF ERROR     8    4    0.2245311694E-08    0.1500000053E-06
     PET DIFF ERROR     8    5    0.2245314982E-08    0.1500000053E-06
 
 SOLVING FOR HEAD 
                                                   Max.-Head-Change                         Max.-Flux-Residual
  Residual-Control   Outer-Iter.   Inner-Iter.     Column Row Layer    Maximum-Head-Change  Column Row Layer    Maximum-Flux-Residual          L2-NORM 
          0                 1           2             5    8     1       0.8676364671E+00       5    8    1         0.4772446919E+02      0.5262050182E+02
          0                 2           2             4    7     1      -0.1873938284E+01       5    6    1        -0.1009991570E+03      0.2388026795E+03
          0                 3           2             5    8     1      -0.6616344708E+00       5    8    1        -0.3774936800E+02      0.4093487069E+02
          0                 4           2             5    8     1      -0.3286449564E+00       5    8    1        -0.1863405038E+02      0.1864599727E+02
          0                 5           2             5    8     1      -0.7902170323E-02       5    8    1        -0.4480945571E+00      0.4485708203E+00
          0                 6           1             5    8     1       0.5383352952E-03       5    8    1         0.3141056923E-01      0.3141971662E-01
          0                 7           1             5    8     1      -0.2143612228E-04       5    8    1        -0.1285987064E-02      0.1286658758E-02

    ------------------------------------------------
       NWT REQUIRED            7 OUTER ITERATIONS 
       AND A TOTAL OF         12 INNER ITERATIONS.
    ------------------------------------------------

 NO OUTPUT CONTROL FOR STRESS PERIOD   31   TIME STEP   10
 
 SOLVING FOR HEAD 
                                                   Max.-Head-Change                         Max.-Flux-Residual
  Residual-Control   Outer-Iter.   Inner-Iter.     Column Row Layer    Maximum-Head-Change  Column Row Layer    Maximum-Flux-Residual          L2-NORM 
          0                 1           2             5    8     1       0.4340984143E+00       5    8    1         0.2379905094E+02      0.3570755043E+02
          0                 2           2             5    8     1       0.1226873243E+00       5    8    1         0.6898522440E+01      0.1273323757E+02
          0                 3           2             5    8     1       0.1244690065E+00       5    8    1         0.6745972421E+01      0.1137729292E+02
          0                 4           2             5    8     1       0.5525086396E-01       5    8    1         0.3053573395E+01      0.3076143871E+01
          0                 5           2             5    8     1       0.2452519028E-01       5    8    1         0.1353155229E+01      0.1353188844E+01
          0                 6           2             5    8     1       0.1088644167E-01       5    8    1         0.6006576026E+00      0.6006674827E+00
          0                 7           1             5    8     1       0.4832362891E-02       5    8    1         0.2666255479E+00      0.2666298865E+00
          0                 8           1             5    8     1       0.2145028880E-02       5    8    1         0.1183520071E+00      0.1183539325E+00
          0                 9           1             5    8     1       0.9521530269E-03       5    8    1         0.5253507843E-01      0.5253593280E-01
          0                10           1             5    8     1       0.4226495037E-03       5    8    1         0.2331970556E-01      0.2332008477E-01
                                                   Max.-Head-Change                         Max.-Flux-Residual
  Residual-Control   Outer-Iter.   Inner-Iter.     Column Row Layer    Maximum-Head-Change  Column Row Layer    Maximum-Flux-Residual          L2-NORM 
          0                11           1             5    8     1       0.1876091323E-03       5    8    1         0.1035134325E-01      0.1035151168E-01
          0                12           1             5    8     1       0.8327748221E-04       5    8    1         0.4594839481E-02      0.4594914542E-02

    ------------------------------------------------
       NWT REQUIRED           12 OUTER ITERATIONS 
       AND A TOTAL OF         18 INNER ITERATIONS.
    ------------------------------------------------

 NO OUTPUT CONTROL FOR STRESS PERIOD   31   TIME STEP   11
 
 SOLVING FOR HEAD 
                                                   Max.-Head-Change                         Max.-Flux-Residual
  Residual-Control   Outer-Iter.   Inner-Iter.     Column Row Layer    Maximum-Head-Change  Column Row Layer    Maximum-Flux-Residual          L2-NORM 
          0                 1           2             5    8     1       0.5128436759E+00       5    8    1         0.2811360429E+02      0.3821439315E+02
          0                 2           2             5    8     1       0.2276225309E+00       5    8    1         0.1258021068E+02      0.1284362556E+02
          0                 3           2             5    8     1       0.1010249289E+00       5    8    1         0.5573673523E+01      0.5576719713E+01
          0                 4           2             5    8     1       0.4483774408E-01       5    8    1         0.2474349489E+01      0.2474364307E+01
          0                 5           2             5    8     1       0.1990027001E-01       5    8    1         0.1098182908E+01      0.1098187523E+01
          0                 6           2             5    8     1       0.8832308756E-02       5    8    1         0.4874059625E+00      0.4874079133E+00
          0                 7           1             5    8     1       0.3920031342E-02       5    8    1         0.2163250603E+00      0.2163259251E+00
          0                 8           1             5    8     1       0.1739822115E-02       5    8    1         0.9601130157E-01      0.9601168540E-01
          0                 9           1             5    8     1       0.7721828626E-03       5    8    1         0.4261257615E-01      0.4261274639E-01
          0                10           1             5    8     1       0.3427168626E-03       5    8    1         0.1891268370E-01      0.1891275923E-01
                                                   Max.-Head-Change                         Max.-Flux-Residual
  Residual-Control   Outer-Iter.   Inner-Iter.     Column Row Layer    Maximum-Head-Change  Column Row Layer    Maximum-Flux-Residual          L2-NORM 
          0                11           1             5    8     1       0.1521075559E-03       5    8    1         0.8393991094E-02      0.8394024606E-02
          0                12           1             5    8     1       0.6750968856E-04       5    8    1         0.3725493739E-02      0.3725508635E-02

    ------------------------------------------------
       NWT REQUIRED           12 OUTER ITERATIONS 
       AND A TOTAL OF         18 INNER ITERATIONS.
    ------------------------------------------------

 NO OUTPUT CONTROL FOR STRESS PERIOD   31   TIME STEP   12
 
 SOLVING FOR HEAD 
     PET DIFF ERROR     6    4    0.2245311645E-08    0.1500000053E-06
     PET DIFF ERROR     6    5    0.2245311694E-08    0.1500000053E-06
     PET DIFF ERROR     7    4    0.2245318269E-08    0.1500000053E-06
     PET DIFF ERROR     7    5    0.2245311680E-08    0.1500000053E-06
     PET DIFF ERROR     8    4    0.2245318269E-08    0.1500000053E-06
     PET DIFF ERROR     8    5    0.2245314932E-08    0.1500000053E-06
                                                   Max.-Head-Change                         Max.-Flux-Residual
  Residual-Control   Outer-Iter.   Inner-Iter.     Column Row Layer    Maximum-Head-Change  Column Row Layer    Maximum-Flux-Residual          L2-NORM 
          0                 1           2             5    8     1       0.4576812126E+00       5    8    1         0.2503362950E+02      0.3560795984E+02
     PET DIFF ERROR     6    4    0.2245311645E-08    0.1500000053E-06
     PET DIFF ERROR     6    5    0.2245311694E-08    0.1500000053E-06
     PET DIFF ERROR     7    4    0.2245318269E-08    0.1500000053E-06
     PET DIFF ERROR     7    5    0.2245311680E-08    0.1500000053E-06
     PET DIFF ERROR     8    4    0.2245318269E-08    0.1500000053E-06
     PET DIFF ERROR     8    5    0.2245314932E-08    0.1500000053E-06
          0                 2           2             5    8     1       0.2031149248E+00       5    8    1         0.1123274648E+02      0.1151455392E+02
     PET DIFF ERROR     6    4    0.2245311645E-08    0.1500000053E-06
     PET DIFF ERROR     6    5    0.2245311694E-08    0.1500000053E-06
     PET DIFF ERROR     7    4    0.2245318269E-08    0.1500000053E-06
     PET DIFF ERROR     7    5    0.2245311680E-08    0.1500000053E-06
     PET DIFF ERROR     8    4    0.2245318269E-08    0.1500000053E-06
     PET DIFF ERROR     8    5    0.2245314932E-08    0.1500000053E-06
          0                 3           2             5    8     1       0.9013726443E-01       5    8    1         0.4973064604E+01      0.4976341634E+01
     PET DIFF ERROR     6    4    0.2245311645E-08    0.1500000053E-06
     PET DIFF ERROR     6    5    0.2245311694E-08    0.1500000053E-06
     PET DIFF ERROR     7    4    0.2245318269E-08    0.1500000053E-06
     PET DIFF ERROR     7    5    0.2245311680E-08    0.1500000053E-06
     PET DIFF ERROR     8    4    0.2245318269E-08    0.1500000053E-06
     PET DIFF ERROR     8    5    0.2245314932E-08    0.1500000053E-06
          0                 4           2             5    8     1       0.4000080434E-01       5    8    1         0.2207658300E+01      0.2207671351E+01
     PET DIFF ERROR     6    4    0.2245311645E-08    0.1500000053E-06
     PET DIFF ERROR     6    5    0.2245311694E-08    0.1500000053E-06
     PET DIFF ERROR     7    4    0.2245318269E-08    0.1500000053E-06
     PET DIFF ERROR     7    5    0.2245311680E-08    0.1500000053E-06
     PET DIFF ERROR     8    4    0.2245318269E-08    0.1500000053E-06
     PET DIFF ERROR     8    5    0.2245314932E-08    0.1500000053E-06
          0                 5           2             5    8     1       0.1775141925E-01       5    8    1         0.9796929843E+00      0.9796972141E+00
     PET DIFF ERROR     6    4    0.2245311645E-08    0.1500000053E-06
     PET DIFF ERROR     6    5    0.2245311694E-08    0.1500000053E-06
     PET DIFF ERROR     7    4    0.2245318269E-08    0.1500000053E-06
     PET DIFF ERROR     7    5    0.2245311680E-08    0.1500000053E-06
     PET DIFF ERROR     8    4    0.2245318269E-08    0.1500000053E-06
     PET DIFF ERROR     8    5    0.2245314932E-08    0.1500000053E-06
          0                 6           2             5    8     1       0.7877664686E-02       5    8    1         0.4347660932E+00      0.4347678377E+00
     PET DIFF ERROR     6    4    0.2245311645E-08    0.1500000053E-06
     PET DIFF ERROR     6    5    0.2245311694E-08    0.1500000053E-06
     PET DIFF ERROR     7    4    0.2245318269E-08    0.1500000053E-06
     PET DIFF ERROR     7    5    0.2245311680E-08    0.1500000053E-06
     PET DIFF ERROR     8    4    0.2245318269E-08    0.1500000053E-06
     PET DIFF ERROR     8    5    0.2245314932E-08    0.1500000053E-06
          0                 7           1             5    8     1       0.3495923510E-02       5    8    1         0.1929392892E+00      0.1929400649E+00
     PET DIFF ERROR     6    4    0.2245311645E-08    0.1500000053E-06
     PET DIFF ERROR     6    5    0.2245311694E-08    0.1500000053E-06
     PET DIFF ERROR     7    4    0.2245318269E-08    0.1500000053E-06
     PET DIFF ERROR     7    5    0.2245311680E-08    0.1500000053E-06
     PET DIFF ERROR     8    4    0.2245318269E-08    0.1500000053E-06
     PET DIFF ERROR     8    5    0.2245314932E-08    0.1500000053E-06
          0                 8           1             5    8     1       0.1551409199E-02       5    8    1         0.8562198923E-01      0.8562233334E-01
     PET DIFF ERROR     6    4    0.2245311645E-08    0.1500000053E-06
     PET DIFF ERROR     6    5    0.2245311694E-08    0.1500000053E-06
     PET DIFF ERROR     7    4    0.2245318269E-08    0.1500000053E-06
     PET DIFF ERROR     7    5    0.2245311680E-08    0.1500000053E-06
     PET DIFF ERROR     8    4    0.2245318269E-08    0.1500000053E-06
     PET DIFF ERROR     8    5    0.2245314932E-08    0.1500000053E-06
          0                 9           1             5    8     1       0.6884791724E-03       5    8    1         0.3799704876E-01      0.3799720139E-01
     PET DIFF ERROR     6    4    0.2245311645E-08    0.1500000053E-06
     PET DIFF ERROR     6    5    0.2245311694E-08    0.1500000053E-06
     PET DIFF ERROR     7    4    0.2245318269E-08    0.1500000053E-06
     PET DIFF ERROR     7    5    0.2245311680E-08    0.1500000053E-06
     PET DIFF ERROR     8    4    0.2245318269E-08    0.1500000053E-06
     PET DIFF ERROR     8    5    0.2245314932E-08    0.1500000053E-06
          0                10           1             5    8     1       0.3055309800E-03       5    8    1         0.1686220490E-01      0.1686227259E-01
     PET DIFF ERROR     6    4    0.2245311645E-08    0.1500000053E-06
     PET DIFF ERROR     6    5    0.2245311694E-08    0.1500000053E-06
     PET DIFF ERROR     7    4    0.2245318269E-08    0.1500000053E-06
     PET DIFF ERROR     7    5    0.2245311680E-08    0.1500000053E-06
     PET DIFF ERROR     8    4    0.2245318269E-08    0.1500000053E-06
     PET DIFF ERROR     8    5    0.2245314932E-08    0.1500000053E-06
                                                   Max.-Head-Change                         Max.-Flux-Residual
  Residual-Control   Outer-Iter.   Inner-Iter.     Column Row Layer    Maximum-Head-Change  Column Row Layer    Maximum-Flux-Residual          L2-NORM 
          0                11           1             5    8     1       0.1355875147E-03       5    8    1         0.7483053268E-02      0.7483083292E-02
     PET DIFF ERROR     6    4    0.2245311645E-08    0.1500000053E-06
     PET DIFF ERROR     6    5    0.2245311694E-08    0.1500000053E-06
     PET DIFF ERROR     7    4    0.2245318269E-08    0.1500000053E-06
     PET DIFF ERROR     7    5    0.2245311680E-08    0.1500000053E-06
     PET DIFF ERROR     8    4    0.2245318269E-08    0.1500000053E-06
     PET DIFF ERROR     8    5    0.2245314932E-08    0.1500000053E-06
          0                12           1             5    8     1       0.6017057317E-04       5    8    1         0.3320804439E-02      0.3320817757E-02

    ------------------------------------------------
       NWT REQUIRED           12 OUTER ITERATIONS 
       AND A TOTAL OF         18 INNER ITERATIONS.
    ------------------------------------------------

 NO OUTPUT CONTROL FOR STRESS PERIOD   31   TIME STEP   13
     PET DIFF ERROR     6    4    0.2245311645E-08    0.1500000053E-06
     PET DIFF ERROR     6    5    0.2245311694E-08    0.1500000053E-06
     PET DIFF ERROR     7    4    0.2245318269E-08    0.1500000053E-06
     PET DIFF ERROR     7    5    0.2245311680E-08    0.1500000053E-06
     PET DIFF ERROR     8    4    0.2245318269E-08    0.1500000053E-06
     PET DIFF ERROR     8    5    0.2245314932E-08    0.1500000053E-06
 
 SOLVING FOR HEAD 
                                                   Max.-Head-Change                         Max.-Flux-Residual
  Residual-Control   Outer-Iter.   Inner-Iter.     Column Row Layer    Maximum-Head-Change  Column Row Layer    Maximum-Flux-Residual          L2-NORM 
          0                 1           2             5    8     1       0.7674029710E+00       5    8    1         0.4203595312E+02      0.4992750345E+02
          0                 2           2             4    7     1      -0.1873873985E+01       5    7    1        -0.1010746626E+03      0.2342096700E+03
          0                 3           2             5    8     1      -0.6836854445E+00       5    8    1        -0.3880434867E+02      0.4122598367E+02
          0                 4           2             5    8     1      -0.2833255472E+00       5    8    1        -0.1607700105E+02      0.1609176252E+02
          0                 5           2             5    8     1       0.1929386041E-01       5    8    1         0.1125535181E+01      0.1125905071E+01
          0                 6           1             5    8     1      -0.7681094909E-03       5    8    1        -0.4604053012E-01      0.4607108560E-01
          0                 7           1             5    8     1       0.9485145078E-05       5    8    1         0.5829196036E-03      0.5882536526E-03

    ------------------------------------------------
       NWT REQUIRED            7 OUTER ITERATIONS 
       AND A TOTAL OF         12 INNER ITERATIONS.
    ------------------------------------------------

 NO OUTPUT CONTROL FOR STRESS PERIOD   31   TIME STEP   14
 
 SOLVING FOR HEAD 
                                                   Max.-Head-Change                         Max.-Flux-Residual
  Residual-Control   Outer-Iter.   Inner-Iter.     Column Row Layer    Maximum-Head-Change  Column Row Layer    Maximum-Flux-Residual          L2-NORM 
          0                 1           2             5    8     1       0.2905852867E+00       5    8    1         0.1579108669E+02      0.3299755865E+02
          0                 2           2             5    7     1      -0.8805161837E-01       5    7    1        -0.4929207374E+01      0.9728996851E+01
          0                 3           2             5    8     1       0.9679837552E-01       5    8    1         0.5223769646E+01      0.9931052703E+01
          0                 4           2             5    8     1       0.4355401679E-01       5    8    1         0.2379094226E+01      0.3098135027E+01
          0                 5           2             5    8     1       0.1960525628E-01       5    8    1         0.1069400631E+01      0.1405909777E+01
          0                 6           2             5    8     1       0.8828840160E-02       5    8    1         0.4814164423E+00      0.6421520764E+00
          0                 7           2             5    8     1       0.3977590123E-02       5    8    1         0.2168134789E+00      0.2934807365E+00
          0                 8           2             5    8     1       0.1792751239E-02       5    8    1         0.9768680606E-01      0.1342082954E+00
          0                 9           2             5    8     1       0.8083546021E-03       5    8    1         0.4403204023E-01      0.6140903073E-01
          0                10           2             5    8     1       0.3646395773E-03       5    8    1         0.1985560794E-01      0.2811469248E-01
                                                   Max.-Head-Change                         Max.-Flux-Residual
  Residual-Control   Outer-Iter.   Inner-Iter.     Column Row Layer    Maximum-Head-Change  Column Row Layer    Maximum-Flux-Residual          L2-NORM 
          0                11           2             5    8     1       0.1645522035E-03       5    8    1         0.8957301302E-02      0.1287888907E-01
          0                12           1             5    8     1       0.7428814216E-04       5    8    1         0.4042488364E-02      0.5902878180E-02

    ------------------------------------------------
       NWT REQUIRED           12 OUTER ITERATIONS 
       AND A TOTAL OF         23 INNER ITERATIONS.
    ------------------------------------------------

 NO OUTPUT CONTROL FOR STRESS PERIOD   31   TIME STEP   15
 
 SOLVING FOR HEAD 
                                                   Max.-Head-Change                         Max.-Flux-Residual
  Residual-Control   Outer-Iter.   Inner-Iter.     Column Row Layer    Maximum-Head-Change  Column Row Layer    Maximum-Flux-Residual          L2-NORM 
          0                 1           2             5    6     1       0.6058802492E+00       5    6    1         0.3304125070E+02      0.5992739394E+02
          0                 2           2             4    8     1       0.2755163087E+00       5    6    1         0.1487979195E+02      0.2611474478E+02
          0                 3           2             4    8     1       0.1266125071E+00       4    8    1         0.6790814753E+01      0.1192679329E+02
          0                 4           2             4    8     1       0.5818973968E-01       4    8    1         0.3120754549E+01      0.5461659762E+01
          0                 5           2             4    8     1       0.2674575713E-01       4    8    1         0.1434304885E+01      0.2501946893E+01
          0                 6           2             4    8     1       0.1229422077E-01       4    8    1         0.6592606279E+00      0.1146383298E+01
          0                 7           2             4    8     1       0.5651758342E-02       4    8    1         0.3030473337E+00      0.5253874964E+00
          0                 8           2             4    8     1       0.2598372636E-02       4    8    1         0.1393155756E+00      0.2408351668E+00
          0                 9           2             4    8     1       0.1194684829E-02       4    8    1         0.6405069603E-01      0.1104191554E+00
          0                10           2             4    8     1       0.5493360648E-03       4    8    1         0.2944976477E-01      0.5063461013E-01
                                                   Max.-Head-Change                         Max.-Flux-Residual
  Residual-Control   Outer-Iter.   Inner-Iter.     Column Row Layer    Maximum-Head-Change  Column Row Layer    Maximum-Flux-Residual          L2-NORM 
          0                11           2             4    8     1       0.2526123077E-03       4    8    1         0.1354167599E-01      0.2322328569E-01
          0                12           2             4    8     1       0.1161719602E-03       4    8    1         0.6227222920E-02      0.1065290333E-01
          0                13           1             4    8     1       0.5342902108E-04       4    8    1         0.2863825863E-02      0.4887376221E-02

    ------------------------------------------------
       NWT REQUIRED           13 OUTER ITERATIONS 
       AND A TOTAL OF         25 INNER ITERATIONS.
    ------------------------------------------------

 NO OUTPUT CONTROL FOR STRESS PERIOD   31   TIME STEP   16
 
 SOLVING FOR HEAD 
     PET DIFF ERROR     6    4    0.2245318234E-08    0.1500000053E-06
     PET DIFF ERROR     6    5    0.2245318220E-08    0.1500000053E-06
     PET DIFF ERROR     7    4    0.2245311694E-08    0.1500000053E-06
     PET DIFF ERROR     7    5    0.2245318269E-08    0.1500000053E-06
     PET DIFF ERROR     8    4    0.2245311645E-08    0.1500000053E-06
     PET DIFF ERROR     8    5    0.2245314957E-08    0.1500000053E-06
                                                   Max.-Head-Change                         Max.-Flux-Residual
  Residual-Control   Outer-Iter.   Inner-Iter.     Column Row Layer    Maximum-Head-Change  Column Row Layer    Maximum-Flux-Residual          L2-NORM 
          0                 1           2             5    7     1       0.5819148726E+00       5    7    1         0.3124473978E+02      0.6018664614E+02
     PET DIFF ERROR     6    4    0.2245318234E-08    0.1500000053E-06
     PET DIFF ERROR     6    5    0.2245318220E-08    0.1500000053E-06
     PET DIFF ERROR     7    4    0.2245311694E-08    0.1500000053E-06
     PET DIFF ERROR     7    5    0.2245318269E-08    0.1500000053E-06
     PET DIFF ERROR     8    4    0.2245311645E-08    0.1500000053E-06
     PET DIFF ERROR     8    5    0.2245314957E-08    0.1500000053E-06
          0                 2           2             5    7     1       0.2664165558E+00       5    7    1         0.1434010996E+02      0.2637655742E+02
     PET DIFF ERROR     6    4    0.2245318234E-08    0.1500000053E-06
     PET DIFF ERROR     6    5    0.2245318220E-08    0.1500000053E-06
     PET DIFF ERROR     7    4    0.2245311694E-08    0.1500000053E-06
     PET DIFF ERROR     7    5    0.2245318269E-08    0.1500000053E-06
     PET DIFF ERROR     8    4    0.2245311645E-08    0.1500000053E-06
     PET DIFF ERROR     8    5    0.2245314957E-08    0.1500000053E-06
          0                 3           2             5    7     1       0.1219747324E+00       5    7    1         0.6561745967E+01      0.1205663295E+02
     PET DIFF ERROR     6    4    0.2245318234E-08    0.1500000053E-06
     PET DIFF ERROR     6    5    0.2245318220E-08    0.1500000053E-06
     PET DIFF ERROR     7    4    0.2245311694E-08    0.1500000053E-06
     PET DIFF ERROR     7    5    0.2245318269E-08    0.1500000053E-06
     PET DIFF ERROR     8    4    0.2245311645E-08    0.1500000053E-06
     PET DIFF ERROR     8    5    0.2245314957E-08    0.1500000053E-06
          0                 4           2             5    7     1       0.5584632714E-01       5    7    1         0.3004390045E+01      0.5526056207E+01
     PET DIFF ERROR     6    4    0.2245318234E-08    0.1500000053E-06
     PET DIFF ERROR     6    5    0.2245318220E-08    0.1500000053E-06
     PET DIFF ERROR     7    4    0.2245311694E-08    0.1500000053E-06
     PET DIFF ERROR     7    5    0.2245318269E-08    0.1500000053E-06
     PET DIFF ERROR     8    4    0.2245311645E-08    0.1500000053E-06
     PET DIFF ERROR     8    5    0.2245314957E-08    0.1500000053E-06
          0                 5           2             5    7     1       0.2557021429E-01       5    7    1         0.1375581897E+01      0.2533300345E+01
     PET DIFF ERROR     6    4    0.2245318234E-08    0.1500000053E-06
     PET DIFF ERROR     6    5    0.2245318220E-08    0.1500000053E-06
     PET DIFF ERROR     7    4    0.2245311694E-08    0.1500000053E-06
     PET DIFF ERROR     7    5    0.2245318269E-08    0.1500000053E-06
     PET DIFF ERROR     8    4    0.2245311645E-08    0.1500000053E-06
     PET DIFF ERROR     8    5    0.2245314957E-08    0.1500000053E-06
          0                 6           2             5    7     1       0.1170816659E-01       5    7    1         0.6298388515E+00      0.1161487645E+01
     PET DIFF ERROR     6    4    0.2245318234E-08    0.1500000053E-06
     PET DIFF ERROR     6    5    0.2245318220E-08    0.1500000053E-06
     PET DIFF ERROR     7    4    0.2245311694E-08    0.1500000053E-06
     PET DIFF ERROR     7    5    0.2245318269E-08    0.1500000053E-06
     PET DIFF ERROR     8    4    0.2245311645E-08    0.1500000053E-06
     PET DIFF ERROR     8    5    0.2245314957E-08    0.1500000053E-06
          0                 7           2             5    7     1       0.5361149343E-02       5    7    1         0.2883945993E+00      0.5325985307E+00
     PET DIFF ERROR     6    4    0.2245318234E-08    0.1500000053E-06
     PET DIFF ERROR     6    5    0.2245318220E-08    0.1500000053E-06
     PET DIFF ERROR     7    4    0.2245311694E-08    0.1500000053E-06
     PET DIFF ERROR     7    5    0.2245318269E-08    0.1500000053E-06
     PET DIFF ERROR     8    4    0.2245311645E-08    0.1500000053E-06
     PET DIFF ERROR     8    5    0.2245314957E-08    0.1500000053E-06
          0                 8           2             5    7     1       0.2454941443E-02       5    7    1         0.1320562251E+00      0.2442525633E+00
     PET DIFF ERROR     6    4    0.2245318234E-08    0.1500000053E-06
     PET DIFF ERROR     6    5    0.2245318220E-08    0.1500000053E-06
     PET DIFF ERROR     7    4    0.2245311694E-08    0.1500000053E-06
     PET DIFF ERROR     7    5    0.2245318269E-08    0.1500000053E-06
     PET DIFF ERROR     8    4    0.2245311645E-08    0.1500000053E-06
     PET DIFF ERROR     8    5    0.2245314957E-08    0.1500000053E-06
          0                 9           2             5    7     1       0.1124186456E-02       5    7    1         0.6047066046E-01      0.1120287625E+00
     PET DIFF ERROR     6    4    0.2245318234E-08    0.1500000053E-06
     PET DIFF ERROR     6    5    0.2245318220E-08    0.1500000053E-06
     PET DIFF ERROR     7    4    0.2245311694E-08    0.1500000053E-06
     PET DIFF ERROR     7    5    0.2245318269E-08    0.1500000053E-06
     PET DIFF ERROR     8    4    0.2245311645E-08    0.1500000053E-06
     PET DIFF ERROR     8    5    0.2245314957E-08    0.1500000053E-06
          0                10           2             4    8     1       0.5170133272E-03       4    8    1         0.2770067439E-01      0.5138880856E-01
     PET DIFF ERROR     6    4    0.2245318234E-08    0.1500000053E-06
     PET DIFF ERROR     6    5    0.2245318220E-08    0.1500000053E-06
     PET DIFF ERROR     7    4    0.2245311694E-08    0.1500000053E-06
     PET DIFF ERROR     7    5    0.2245318269E-08    0.1500000053E-06
     PET DIFF ERROR     8    4    0.2245311645E-08    0.1500000053E-06
     PET DIFF ERROR     8    5    0.2245314957E-08    0.1500000053E-06
                                                   Max.-Head-Change                         Max.-Flux-Residual
  Residual-Control   Outer-Iter.   Inner-Iter.     Column Row Layer    Maximum-Head-Change  Column Row Layer    Maximum-Flux-Residual          L2-NORM 
          0                11           2             4    8     1       0.2379236380E-03       4    8    1         0.1274643440E-01      0.2357510729E-01
     PET DIFF ERROR     6    4    0.2245318234E-08    0.1500000053E-06
     PET DIFF ERROR     6    5    0.2245318220E-08    0.1500000053E-06
     PET DIFF ERROR     7    4    0.2245311694E-08    0.1500000053E-06
     PET DIFF ERROR     7    5    0.2245318269E-08    0.1500000053E-06
     PET DIFF ERROR     8    4    0.2245311645E-08    0.1500000053E-06
     PET DIFF ERROR     8    5    0.2245314957E-08    0.1500000053E-06
          0                12           1             4    8     1       0.1095005750E-03       4    8    1         0.5865874851E-02      0.1081639575E-01
     PET DIFF ERROR     6    4    0.2245318234E-08    0.1500000053E-06
     PET DIFF ERROR     6    5    0.2245318220E-08    0.1500000053E-06
     PET DIFF ERROR     7    4    0.2245311694E-08    0.1500000053E-06
     PET DIFF ERROR     7    5    0.2245318269E-08    0.1500000053E-06
     PET DIFF ERROR     8    4    0.2245311645E-08    0.1500000053E-06
     PET DIFF ERROR     8    5    0.2245314957E-08    0.1500000053E-06
          0                13           1             4    8     1       0.5040064793E-04       4    8    1         0.2699727159E-02      0.4963099547E-02

    ------------------------------------------------
       NWT REQUIRED           13 OUTER ITERATIONS 
       AND A TOTAL OF         24 INNER ITERATIONS.
    ------------------------------------------------

 NO OUTPUT CONTROL FOR STRESS PERIOD   31   TIME STEP   17
     PET DIFF ERROR     6    4    0.2245318234E-08    0.1500000053E-06
     PET DIFF ERROR     6    5    0.2245318220E-08    0.1500000053E-06
     PET DIFF ERROR     7    4    0.2245311694E-08    0.1500000053E-06
     PET DIFF ERROR     7    5    0.2245318269E-08    0.1500000053E-06
     PET DIFF ERROR     8    4    0.2245311645E-08    0.1500000053E-06
     PET DIFF ERROR     8    5    0.2245314957E-08    0.1500000053E-06
 
 SOLVING FOR HEAD 
                                                   Max.-Head-Change                         Max.-Flux-Residual
  Residual-Control   Outer-Iter.   Inner-Iter.     Column Row Layer    Maximum-Head-Change  Column Row Layer    Maximum-Flux-Residual          L2-NORM 
          0                 1           2             5    8     1       0.7629160837E+00       5    8    1         0.4129592686E+02      0.6657586261E+02
          0                 2           2             4    7     1      -0.1874910969E+01       4    7    1        -0.1009982533E+03      0.2226965779E+03
          0                 3           2             5    8     1      -0.6977120636E+00       5    8    1        -0.3867364332E+02      0.6598801586E+02
          0                 4           2             5    8     1      -0.2821948523E+00       5    8    1        -0.1607483941E+02      0.1649527083E+02
          0                 5           2             5    8     1       0.1921626514E-01       5    8    1         0.1123320368E+01      0.1134453393E+01
          0                 6           1             5    8     1      -0.7650218089E-03       5    8    1        -0.4588231838E-01      0.4597249113E-01
          0                 7           1             5    8     1       0.9447016986E-05       5    8    1         0.5802004000E-03      0.5856936340E-03

    ------------------------------------------------
       NWT REQUIRED            7 OUTER ITERATIONS 
       AND A TOTAL OF         12 INNER ITERATIONS.
    ------------------------------------------------

 NO OUTPUT CONTROL FOR STRESS PERIOD   31   TIME STEP   18
 
 SOLVING FOR HEAD 
                                                   Max.-Head-Change                         Max.-Flux-Residual
  Residual-Control   Outer-Iter.   Inner-Iter.     Column Row Layer    Maximum-Head-Change  Column Row Layer    Maximum-Flux-Residual          L2-NORM 
          0                 1           2             5    7     1       0.4320316100E+00       5    7    1         0.2317889824E+02      0.4685507598E+02
          0                 2           2             5    7     1       0.1264626846E+00       5    7    1         0.6898567352E+01      0.1386970380E+02
          0                 3           2             5    7     1       0.1287398014E+00       5    7    1         0.6857542794E+01      0.1406137699E+02
          0                 4           2             5    7     1       0.5899552849E-01       5    7    1         0.3174133578E+01      0.5910352007E+01
          0                 5           2             5    7     1       0.2703428415E-01       5    7    1         0.1453301245E+01      0.2705114352E+01
          0                 6           2             5    7     1       0.1238806894E-01       5    7    1         0.6659577242E+00      0.1240045953E+01
          0                 7           2             5    7     1       0.5676572625E-02       5    7    1         0.3051649044E+00      0.5685286139E+00
          0                 8           2             5    7     1       0.2601138939E-02       5    7    1         0.1398351060E+00      0.2606897400E+00
          0                 9           2             5    7     1       0.1191891020E-02       5    7    1         0.6407560058E-01      0.1195501122E+00
          0                10           2             5    7     1       0.5461425710E-03       5    7    1         0.2936059794E-01      0.5483119392E-01
                                                   Max.-Head-Change                         Max.-Flux-Residual
  Residual-Control   Outer-Iter.   Inner-Iter.     Column Row Layer    Maximum-Head-Change  Column Row Layer    Maximum-Flux-Residual          L2-NORM 
          0                11           2             4    8     1       0.2508480026E-03       5    7    1         0.1345345139E-01      0.2515095498E-01
          0                12           2             4    8     1       0.1154669708E-03       4    8    1         0.6184397584E-02      0.1153792850E-01
          0                13           1             4    8     1       0.5315485574E-04       4    8    1         0.2846766729E-02      0.5293530851E-02

    ------------------------------------------------
       NWT REQUIRED           13 OUTER ITERATIONS 
       AND A TOTAL OF         25 INNER ITERATIONS.
    ------------------------------------------------

 NO OUTPUT CONTROL FOR STRESS PERIOD   31   TIME STEP   19
 
 SOLVING FOR HEAD 
                                                   Max.-Head-Change                         Max.-Flux-Residual
  Residual-Control   Outer-Iter.   Inner-Iter.     Column Row Layer    Maximum-Head-Change  Column Row Layer    Maximum-Flux-Residual          L2-NORM 
          0                 1           2             5    7     1       0.5376538971E+00       5    7    1         0.2874970407E+02      0.6385429885E+02
          0                 2           2             5    7     1       0.2486181814E+00       5    7    1         0.1326139938E+02      0.2894532141E+02
          0                 3           2             5    7     1       0.1150307292E+00       5    7    1         0.6135340487E+01      0.1343071875E+02
          0                 4           2             5    7     1       0.5325977266E-01       5    7    1         0.2838871591E+01      0.6235830369E+01
          0                 5           2             5    7     1       0.2467571126E-01       5    7    1         0.1314592131E+01      0.2897442295E+01
          0                 6           2             5    7     1       0.1143949176E-01       5    7    1         0.6091316804E+00      0.1347031787E+01
          0                 7           2             5    7     1       0.5306316768E-02       5    7    1         0.2824199447E+00      0.6265765005E+00
          0                 8           2             5    7     1       0.2462706736E-02       5    7    1         0.1310163808E+00      0.2915986730E+00
          0                 9           2             5    7     1       0.1143536299E-02       5    7    1         0.6081153893E-01      0.1357677236E+00
          0                10           2             5    7     1       0.5312396924E-03       5    7    1         0.2823978472E-01      0.6324004675E-01
                                                   Max.-Head-Change                         Max.-Flux-Residual
  Residual-Control   Outer-Iter.   Inner-Iter.     Column Row Layer    Maximum-Head-Change  Column Row Layer    Maximum-Flux-Residual          L2-NORM 
          0                11           2             5    7     1       0.2468998660E-03       5    7    1         0.1312011137E-01      0.2946853495E-01
          0                12           2             5    7     1       0.1147964082E-03       5    7    1         0.6098191409E-02      0.1373670544E-01
          0                13           1             5    7     1       0.5339511503E-04       5    7    1         0.2835564055E-02      0.6405486750E-02

    ------------------------------------------------
       NWT REQUIRED           13 OUTER ITERATIONS 
       AND A TOTAL OF         25 INNER ITERATIONS.
    ------------------------------------------------

 NO OUTPUT CONTROL FOR STRESS PERIOD   31   TIME STEP   20
 
 SOLVING FOR HEAD 
     PET DIFF ERROR     6    4    0.2245318269E-08    0.1500000053E-06
     PET DIFF ERROR     6    5    0.2245318269E-08    0.1500000053E-06
     PET DIFF ERROR     7    4    0.2245318283E-08    0.1500000053E-06
     PET DIFF ERROR     7    5    0.2245311645E-08    0.1500000053E-06
     PET DIFF ERROR     8    4    0.2245318283E-08    0.1500000053E-06
     PET DIFF ERROR     8    5    0.2245311645E-08    0.1500000053E-06
                                                   Max.-Head-Change                         Max.-Flux-Residual
  Residual-Control   Outer-Iter.   Inner-Iter.     Column Row Layer    Maximum-Head-Change  Column Row Layer    Maximum-Flux-Residual          L2-NORM 
          0                 1           2             4    7     1       0.6295770197E+00       4    7    1         0.3306718214E+02      0.6974657914E+02
     PET DIFF ERROR     6    4    0.2245318269E-08    0.1500000053E-06
     PET DIFF ERROR     6    5    0.2245318269E-08    0.1500000053E-06
     PET DIFF ERROR     7    4    0.2245318283E-08    0.1500000053E-06
     PET DIFF ERROR     7    5    0.2245311645E-08    0.1500000053E-06
     PET DIFF ERROR     8    4    0.2245318283E-08    0.1500000053E-06
     PET DIFF ERROR     8    5    0.2245311645E-08    0.1500000053E-06
          0                 2           2             4    7     1       0.2969582737E+00       4    7    1         0.1558864076E+02      0.3223903955E+02
     PET DIFF ERROR     6    4    0.2245318269E-08    0.1500000053E-06
     PET DIFF ERROR     6    5    0.2245318269E-08    0.1500000053E-06
     PET DIFF ERROR     7    4    0.2245318283E-08    0.1500000053E-06
     PET DIFF ERROR     7    5    0.2245311645E-08    0.1500000053E-06
     PET DIFF ERROR     8    4    0.2245318283E-08    0.1500000053E-06
     PET DIFF ERROR     8    5    0.2245311645E-08    0.1500000053E-06
          0                 3           2             4    7     1       0.1400198110E+00       4    7    1         0.7353664568E+01      0.1507578017E+02
     PET DIFF ERROR     6    4    0.2245318269E-08    0.1500000053E-06
     PET DIFF ERROR     6    5    0.2245318269E-08    0.1500000053E-06
     PET DIFF ERROR     7    4    0.2245318283E-08    0.1500000053E-06
     PET DIFF ERROR     7    5    0.2245311645E-08    0.1500000053E-06
     PET DIFF ERROR     8    4    0.2245318283E-08    0.1500000053E-06
     PET DIFF ERROR     8    5    0.2245311645E-08    0.1500000053E-06
          0                 4           2             4    7     1       0.6599931633E-01       4    7    1         0.3467071017E+01      0.7049649640E+01
     PET DIFF ERROR     6    4    0.2245318269E-08    0.1500000053E-06
     PET DIFF ERROR     6    5    0.2245318269E-08    0.1500000053E-06
     PET DIFF ERROR     7    4    0.2245318283E-08    0.1500000053E-06
     PET DIFF ERROR     7    5    0.2245311645E-08    0.1500000053E-06
     PET DIFF ERROR     8    4    0.2245318283E-08    0.1500000053E-06
     PET DIFF ERROR     8    5    0.2245311645E-08    0.1500000053E-06
          0                 5           2             4    7     1       0.3109937968E-01       4    7    1         0.1634143616E+01      0.3297034899E+01
     PET DIFF ERROR     6    4    0.2245318269E-08    0.1500000053E-06
     PET DIFF ERROR     6    5    0.2245318269E-08    0.1500000053E-06
     PET DIFF ERROR     7    4    0.2245318283E-08    0.1500000053E-06
     PET DIFF ERROR     7    5    0.2245311645E-08    0.1500000053E-06
     PET DIFF ERROR     8    4    0.2245318283E-08    0.1500000053E-06
     PET DIFF ERROR     8    5    0.2245311645E-08    0.1500000053E-06
          0                 6           2             4    7     1       0.1464982864E-01       4    7    1         0.7699789070E+00      0.1542068427E+01
     PET DIFF ERROR     6    4    0.2245318269E-08    0.1500000053E-06
     PET DIFF ERROR     6    5    0.2245318269E-08    0.1500000053E-06
     PET DIFF ERROR     7    4    0.2245318283E-08    0.1500000053E-06
     PET DIFF ERROR     7    5    0.2245311645E-08    0.1500000053E-06
     PET DIFF ERROR     8    4    0.2245318283E-08    0.1500000053E-06
     PET DIFF ERROR     8    5    0.2245311645E-08    0.1500000053E-06
          0                 7           2             4    7     1       0.6899025773E-02       4    7    1         0.3626912423E+00      0.7212916556E+00
     PET DIFF ERROR     6    4    0.2245318269E-08    0.1500000053E-06
     PET DIFF ERROR     6    5    0.2245318269E-08    0.1500000053E-06
     PET DIFF ERROR     7    4    0.2245318283E-08    0.1500000053E-06
     PET DIFF ERROR     7    5    0.2245311645E-08    0.1500000053E-06
     PET DIFF ERROR     8    4    0.2245318283E-08    0.1500000053E-06
     PET DIFF ERROR     8    5    0.2245311645E-08    0.1500000053E-06
          0                 8           2             4    7     1       0.3248052221E-02       4    7    1         0.1707931993E+00      0.3373977630E+00
     PET DIFF ERROR     6    4    0.2245318269E-08    0.1500000053E-06
     PET DIFF ERROR     6    5    0.2245318269E-08    0.1500000053E-06
     PET DIFF ERROR     7    4    0.2245318283E-08    0.1500000053E-06
     PET DIFF ERROR     7    5    0.2245311645E-08    0.1500000053E-06
     PET DIFF ERROR     8    4    0.2245318283E-08    0.1500000053E-06
     PET DIFF ERROR     8    5    0.2245311645E-08    0.1500000053E-06
          0                 9           2             4    7     1       0.1528775145E-02       4    7    1         0.8040536215E-01      0.1578321753E+00
     PET DIFF ERROR     6    4    0.2245318269E-08    0.1500000053E-06
     PET DIFF ERROR     6    5    0.2245318269E-08    0.1500000053E-06
     PET DIFF ERROR     7    4    0.2245318283E-08    0.1500000053E-06
     PET DIFF ERROR     7    5    0.2245311645E-08    0.1500000053E-06
     PET DIFF ERROR     8    4    0.2245318283E-08    0.1500000053E-06
     PET DIFF ERROR     8    5    0.2245311645E-08    0.1500000053E-06
          0                10           2             4    7     1       0.7193739827E-03       4    7    1         0.3784301462E-01      0.7383614276E-01
     PET DIFF ERROR     6    4    0.2245318269E-08    0.1500000053E-06
     PET DIFF ERROR     6    5    0.2245318269E-08    0.1500000053E-06
     PET DIFF ERROR     7    4    0.2245318283E-08    0.1500000053E-06
     PET DIFF ERROR     7    5    0.2245311645E-08    0.1500000053E-06
     PET DIFF ERROR     8    4    0.2245318283E-08    0.1500000053E-06
     PET DIFF ERROR     8    5    0.2245311645E-08    0.1500000053E-06
                                                   Max.-Head-Change                         Max.-Flux-Residual
  Residual-Control   Outer-Iter.   Inner-Iter.     Column Row Layer    Maximum-Head-Change  Column Row Layer    Maximum-Flux-Residual          L2-NORM 
          0                11           2             4    7     1       0.3384240743E-03       4    7    1         0.1780646936E-01      0.3454306175E-01
     PET DIFF ERROR     6    4    0.2245318269E-08    0.1500000053E-06
     PET DIFF ERROR     6    5    0.2245318269E-08    0.1500000053E-06
     PET DIFF ERROR     7    4    0.2245318283E-08    0.1500000053E-06
     PET DIFF ERROR     7    5    0.2245311645E-08    0.1500000053E-06
     PET DIFF ERROR     8    4    0.2245318283E-08    0.1500000053E-06
     PET DIFF ERROR     8    5    0.2245311645E-08    0.1500000053E-06
          0                12           2             4    7     1       0.1591724401E-03       4    7    1         0.8376568809E-02      0.1616104478E-01
     PET DIFF ERROR     6    4    0.2245318269E-08    0.1500000053E-06
     PET DIFF ERROR     6    5    0.2245318269E-08    0.1500000053E-06
     PET DIFF ERROR     7    4    0.2245318283E-08    0.1500000053E-06
     PET DIFF ERROR     7    5    0.2245311645E-08    0.1500000053E-06
     PET DIFF ERROR     8    4    0.2245318283E-08    0.1500000053E-06
     PET DIFF ERROR     8    5    0.2245311645E-08    0.1500000053E-06
          0                13           1             4    7     1       0.7484780939E-04       4    7    1         0.3939629824E-02      0.7561245970E-02

    ------------------------------------------------
       NWT REQUIRED           13 OUTER ITERATIONS 
       AND A TOTAL OF         25 INNER ITERATIONS.
    ------------------------------------------------

 NO OUTPUT CONTROL FOR STRESS PERIOD   31   TIME STEP   21
     PET DIFF ERROR     6    4    0.2245318269E-08    0.1500000053E-06
     PET DIFF ERROR     6    5    0.2245318269E-08    0.1500000053E-06
     PET DIFF ERROR     7    4    0.2245318283E-08    0.1500000053E-06
     PET DIFF ERROR     7    5    0.2245311645E-08    0.1500000053E-06
     PET DIFF ERROR     8    4    0.2245318283E-08    0.1500000053E-06
     PET DIFF ERROR     8    5    0.2245311645E-08    0.1500000053E-06
 
 SOLVING FOR HEAD 
                                                   Max.-Head-Change                         Max.-Flux-Residual
  Residual-Control   Outer-Iter.   Inner-Iter.     Column Row Layer    Maximum-Head-Change  Column Row Layer    Maximum-Flux-Residual          L2-NORM 
          0                 1           2             5    8     1       0.7630672772E+00       5    8    1         0.4135405777E+02      0.7563004905E+02
          0                 2           2             4    8     1      -0.1614534957E+01       5    6    1        -0.8841246330E+02      0.2105824611E+03
          0                 3           2             5    8     1      -0.6976098680E+00       5    8    1        -0.3868966464E+02      0.7829717778E+02
          0                 4           2             5    8     1      -0.2820026289E+00       5    8    1        -0.1606214274E+02      0.1675416925E+02
          0                 5           2             5    8     1       0.1920319612E-01       5    8    1         0.1122477423E+01      0.1140342128E+01
          0                 6           1             5    8     1      -0.7645014545E-03       5    8    1        -0.4584958811E-01      0.4596601783E-01
          0                 7           1             5    8     1       0.9440591584E-05       5    8    1         0.5798066877E-03      0.5858103577E-03

    ------------------------------------------------
       NWT REQUIRED            7 OUTER ITERATIONS 
       AND A TOTAL OF         12 INNER ITERATIONS.
    ------------------------------------------------

 NO OUTPUT CONTROL FOR STRESS PERIOD   31   TIME STEP   22
 
 SOLVING FOR HEAD 
                                                   Max.-Head-Change                         Max.-Flux-Residual
  Residual-Control   Outer-Iter.   Inner-Iter.     Column Row Layer    Maximum-Head-Change  Column Row Layer    Maximum-Flux-Residual          L2-NORM 
          0                 1           2             5    7     1       0.3589440493E+00       5    6    1         0.1934026733E+02      0.4099729185E+02
          0                 2           2             5    7     1       0.9519605547E-01       5    7    1         0.5107437027E+01      0.1014401787E+02
          0                 3           2             5    7     1       0.1148444077E+00       5    7    1         0.6096194882E+01      0.1289390527E+02
          0                 4           2             5    7     1       0.5362633144E-01       5    7    1         0.2837201932E+01      0.6102277956E+01
          0                 5           2             4    7     1       0.3239087945E-01       4    7    1         0.1720702412E+01      0.3045416624E+01
          0                 6           2             4    7     1       0.1953189196E-01       4    7    1         0.1042746226E+01      0.1568316212E+01
          0                 7           2             4    7     1       0.1172453484E-01       4    7    1         0.6282774710E+00      0.8344069522E+00
          0                 8           2             4    7     1       0.7013759236E-02       4    7    1         0.3769120639E+00      0.4573935373E+00
          0                 9           2             4    7     1       0.4184676169E-02       4    7    1         0.2253698012E+00      0.2569049054E+00
          0                10           2             4    7     1       0.2491683340E-02       4    7    1         0.1344170195E+00      0.1469179099E+00
                                                   Max.-Head-Change                         Max.-Flux-Residual
  Residual-Control   Outer-Iter.   Inner-Iter.     Column Row Layer    Maximum-Head-Change  Column Row Layer    Maximum-Flux-Residual          L2-NORM 
          0                11           2             4    7     1       0.1481303683E-02       4    7    1         0.8001441414E-01      0.8506538300E-01
          0                12           2             4    7     1       0.8795661794E-03       4    7    1         0.4755863035E-01      0.4965233209E-01
          0                13           1             4    7     1       0.5217752930E-03       4    7    1         0.2823476154E-01      0.2912979381E-01
          0                14           1             4    7     1       0.3092997848E-03       4    7    1         0.1674731562E-01      0.1714336202E-01
          0                15           1             4    7     1       0.1832428037E-03       4    7    1         0.9926576745E-02      0.1010831246E-01
          0                16           1             4    7     1       0.1085125187E-03       4    7    1         0.5880501260E-02      0.5966976039E-02
          0                17           1             4    7     1       0.6423632464E-04       4    7    1         0.3482106244E-02      0.3524696430E-02

    ------------------------------------------------
       NWT REQUIRED           17 OUTER ITERATIONS 
       AND A TOTAL OF         29 INNER ITERATIONS.
    ------------------------------------------------

 NO OUTPUT CONTROL FOR STRESS PERIOD   31   TIME STEP   23
 
 SOLVING FOR HEAD 
                                                   Max.-Head-Change                         Max.-Flux-Residual
  Residual-Control   Outer-Iter.   Inner-Iter.     Column Row Layer    Maximum-Head-Change  Column Row Layer    Maximum-Flux-Residual          L2-NORM 
          0                 1           2             4    6     1       0.9688408156E+00       4    6    1         0.5184750348E+02      0.8695906841E+02
          0                 2           2             4    6     1       0.4474890468E+00       4    6    1         0.2389266830E+02      0.4030973534E+02
          0                 3           2             4    6     1       0.2067695621E+00       4    6    1         0.1104073962E+02      0.1882790805E+02
          0                 4           2             4    6     1       0.9557951878E-01       4    6    1         0.5101661492E+01      0.8794447663E+01
          0                 5           2             4    6     1       0.4419899378E-01       4    6    1         0.2358445110E+01      0.4108767122E+01
          0                 6           2             4    6     1       0.2044677707E-01       4    6    1         0.1090694917E+01      0.1919880241E+01
          0                 7           2             4    6     1       0.9462325479E-02       4    6    1         0.5045977379E+00      0.8972119454E+00
          0                 8           2             4    6     1       0.4380534167E-02       4    6    1         0.2335322237E+00      0.4193421150E+00
          0                 9           2             4    7     1       0.2045156631E-02       4    6    1         0.1081194095E+00      0.1960152504E+00
          0                10           2             4    7     1       0.9589767470E-03       4    7    1         0.5059300345E-01      0.9163363868E-01
                                                   Max.-Head-Change                         Max.-Flux-Residual
  Residual-Control   Outer-Iter.   Inner-Iter.     Column Row Layer    Maximum-Head-Change  Column Row Layer    Maximum-Flux-Residual          L2-NORM 
          0                11           2             4    7     1       0.4496244185E-03       4    7    1         0.2372273454E-01      0.4284102506E-01
          0                12           2             4    7     1       0.2107918074E-03       4    7    1         0.1112242913E-01      0.2003093173E-01
          0                13           1             4    7     1       0.9881463121E-04       4    7    1         0.5214310236E-02      0.9366464248E-02

    ------------------------------------------------
       NWT REQUIRED           13 OUTER ITERATIONS 
       AND A TOTAL OF         25 INNER ITERATIONS.
    ------------------------------------------------

 NO OUTPUT CONTROL FOR STRESS PERIOD   31   TIME STEP   24
 
 SOLVING FOR HEAD 
     PET DIFF ERROR     6    4    0.2245311694E-08    0.1500000053E-06
     PET DIFF ERROR     6    5    0.2245318269E-08    0.1500000053E-06
     PET DIFF ERROR     7    4    0.2245318269E-08    0.1500000053E-06
     PET DIFF ERROR     7    5    0.2245318269E-08    0.1500000053E-06
     PET DIFF ERROR     8    4    0.2245311694E-08    0.1500000053E-06
     PET DIFF ERROR     8    5    0.2245314982E-08    0.1500000053E-06
                                                   Max.-Head-Change                         Max.-Flux-Residual
  Residual-Control   Outer-Iter.   Inner-Iter.     Column Row Layer    Maximum-Head-Change  Column Row Layer    Maximum-Flux-Residual          L2-NORM 
          0                 1           2             4    7     1       0.5918674219E+00       4    7    1         0.3107085205E+02      0.6625164737E+02
     PET DIFF ERROR     6    4    0.2245311694E-08    0.1500000053E-06
     PET DIFF ERROR     6    5    0.2245318269E-08    0.1500000053E-06
     PET DIFF ERROR     7    4    0.2245318269E-08    0.1500000053E-06
     PET DIFF ERROR     7    5    0.2245318269E-08    0.1500000053E-06
     PET DIFF ERROR     8    4    0.2245311694E-08    0.1500000053E-06
     PET DIFF ERROR     8    5    0.2245314982E-08    0.1500000053E-06
          0                 2           2             4    7     1       0.2792979428E+00       4    7    1         0.1465652637E+02      0.3075004620E+02
     PET DIFF ERROR     6    4    0.2245311694E-08    0.1500000053E-06
     PET DIFF ERROR     6    5    0.2245318269E-08    0.1500000053E-06
     PET DIFF ERROR     7    4    0.2245318269E-08    0.1500000053E-06
     PET DIFF ERROR     7    5    0.2245318269E-08    0.1500000053E-06
     PET DIFF ERROR     8    4    0.2245311694E-08    0.1500000053E-06
     PET DIFF ERROR     8    5    0.2245314982E-08    0.1500000053E-06
          0                 3           2             4    7     1       0.1317503836E+00       4    7    1         0.6916860750E+01      0.1437868813E+02
     PET DIFF ERROR     6    4    0.2245311694E-08    0.1500000053E-06
     PET DIFF ERROR     6    5    0.2245318269E-08    0.1500000053E-06
     PET DIFF ERROR     7    4    0.2245318269E-08    0.1500000053E-06
     PET DIFF ERROR     7    5    0.2245318269E-08    0.1500000053E-06
     PET DIFF ERROR     8    4    0.2245311694E-08    0.1500000053E-06
     PET DIFF ERROR     8    5    0.2245314982E-08    0.1500000053E-06
          0                 4           2             4    7     1       0.6212766970E-01       4    7    1         0.3262560636E+01      0.6723335421E+01
     PET DIFF ERROR     6    4    0.2245311694E-08    0.1500000053E-06
     PET DIFF ERROR     6    5    0.2245318269E-08    0.1500000053E-06
     PET DIFF ERROR     7    4    0.2245318269E-08    0.1500000053E-06
     PET DIFF ERROR     7    5    0.2245318269E-08    0.1500000053E-06
     PET DIFF ERROR     8    4    0.2245311694E-08    0.1500000053E-06
     PET DIFF ERROR     8    5    0.2245314982E-08    0.1500000053E-06
          0                 5           2             4    7     1       0.2928693049E-01       4    7    1         0.1538394605E+01      0.3144198525E+01
     PET DIFF ERROR     6    4    0.2245311694E-08    0.1500000053E-06
     PET DIFF ERROR     6    5    0.2245318269E-08    0.1500000053E-06
     PET DIFF ERROR     7    4    0.2245318269E-08    0.1500000053E-06
     PET DIFF ERROR     7    5    0.2245318269E-08    0.1500000053E-06
     PET DIFF ERROR     8    4    0.2245311694E-08    0.1500000053E-06
     PET DIFF ERROR     8    5    0.2245314982E-08    0.1500000053E-06
          0                 6           2             4    7     1       0.1380144620E-01       4    7    1         0.7251564205E+00      0.1470494334E+01
     PET DIFF ERROR     6    4    0.2245311694E-08    0.1500000053E-06
     PET DIFF ERROR     6    5    0.2245318269E-08    0.1500000053E-06
     PET DIFF ERROR     7    4    0.2245318269E-08    0.1500000053E-06
     PET DIFF ERROR     7    5    0.2245318269E-08    0.1500000053E-06
     PET DIFF ERROR     8    4    0.2245311694E-08    0.1500000053E-06
     PET DIFF ERROR     8    5    0.2245314982E-08    0.1500000053E-06
          0                 7           2             4    7     1       0.6501945440E-02       4    7    1         0.3417107920E+00      0.6877745125E+00
     PET DIFF ERROR     6    4    0.2245311694E-08    0.1500000053E-06
     PET DIFF ERROR     6    5    0.2245318269E-08    0.1500000053E-06
     PET DIFF ERROR     7    4    0.2245318269E-08    0.1500000053E-06
     PET DIFF ERROR     7    5    0.2245318269E-08    0.1500000053E-06
     PET DIFF ERROR     8    4    0.2245311694E-08    0.1500000053E-06
     PET DIFF ERROR     8    5    0.2245314982E-08    0.1500000053E-06
          0                 8           2             4    7     1       0.3062215903E-02       4    7    1         0.1609735720E+00      0.3217029257E+00
     PET DIFF ERROR     6    4    0.2245311694E-08    0.1500000053E-06
     PET DIFF ERROR     6    5    0.2245318269E-08    0.1500000053E-06
     PET DIFF ERROR     7    4    0.2245318269E-08    0.1500000053E-06
     PET DIFF ERROR     7    5    0.2245318269E-08    0.1500000053E-06
     PET DIFF ERROR     8    4    0.2245311694E-08    0.1500000053E-06
     PET DIFF ERROR     8    5    0.2245314982E-08    0.1500000053E-06
          0                 9           2             4    7     1       0.1441808544E-02       4    7    1         0.7580977073E-01      0.1504831678E+00
     PET DIFF ERROR     6    4    0.2245311694E-08    0.1500000053E-06
     PET DIFF ERROR     6    5    0.2245318269E-08    0.1500000053E-06
     PET DIFF ERROR     7    4    0.2245318269E-08    0.1500000053E-06
     PET DIFF ERROR     7    5    0.2245318269E-08    0.1500000053E-06
     PET DIFF ERROR     8    4    0.2245311694E-08    0.1500000053E-06
     PET DIFF ERROR     8    5    0.2245314982E-08    0.1500000053E-06
          0                10           2             4    7     1       0.6786783441E-03       4    7    1         0.3569242193E-01      0.7039514326E-01
     PET DIFF ERROR     6    4    0.2245311694E-08    0.1500000053E-06
     PET DIFF ERROR     6    5    0.2245318269E-08    0.1500000053E-06
     PET DIFF ERROR     7    4    0.2245318269E-08    0.1500000053E-06
     PET DIFF ERROR     7    5    0.2245318269E-08    0.1500000053E-06
     PET DIFF ERROR     8    4    0.2245311694E-08    0.1500000053E-06
     PET DIFF ERROR     8    5    0.2245314982E-08    0.1500000053E-06
                                                   Max.-Head-Change                         Max.-Flux-Residual
  Residual-Control   Outer-Iter.   Inner-Iter.     Column Row Layer    Maximum-Head-Change  Column Row Layer    Maximum-Flux-Residual          L2-NORM 
          0                11           2             4    7     1       0.3193817429E-03       4    7    1         0.1680011946E-01      0.3293194693E-01
     PET DIFF ERROR     6    4    0.2245311694E-08    0.1500000053E-06
     PET DIFF ERROR     6    5    0.2245318269E-08    0.1500000053E-06
     PET DIFF ERROR     7    4    0.2245318269E-08    0.1500000053E-06
     PET DIFF ERROR     7    5    0.2245318269E-08    0.1500000053E-06
     PET DIFF ERROR     8    4    0.2245311694E-08    0.1500000053E-06
     PET DIFF ERROR     8    5    0.2245314982E-08    0.1500000053E-06
          0                12           2             4    7     1       0.1502625509E-03       4    7    1         0.7905681165E-02      0.1540672411E-01
     PET DIFF ERROR     6    4    0.2245311694E-08    0.1500000053E-06
     PET DIFF ERROR     6    5    0.2245318269E-08    0.1500000053E-06
     PET DIFF ERROR     7    4    0.2245318269E-08    0.1500000053E-06
     PET DIFF ERROR     7    5    0.2245318269E-08    0.1500000053E-06
     PET DIFF ERROR     8    4    0.2245311694E-08    0.1500000053E-06
     PET DIFF ERROR     8    5    0.2245314982E-08    0.1500000053E-06
          0                13           1             4    7     1       0.7067904556E-04       4    7    1         0.3719303654E-02      0.7208083401E-02

    ------------------------------------------------
       NWT REQUIRED           13 OUTER ITERATIONS 
       AND A TOTAL OF         25 INNER ITERATIONS.
    ------------------------------------------------

 NO OUTPUT CONTROL FOR STRESS PERIOD   31   TIME STEP   25
     PET DIFF ERROR     6    4    0.2245311694E-08    0.1500000053E-06
     PET DIFF ERROR     6    5    0.2245318269E-08    0.1500000053E-06
     PET DIFF ERROR     7    4    0.2245318269E-08    0.1500000053E-06
     PET DIFF ERROR     7    5    0.2245318269E-08    0.1500000053E-06
     PET DIFF ERROR     8    4    0.2245311694E-08    0.1500000053E-06
     PET DIFF ERROR     8    5    0.2245314982E-08    0.1500000053E-06
 
 SOLVING FOR HEAD 
                                                   Max.-Head-Change                         Max.-Flux-Residual
  Residual-Control   Outer-Iter.   Inner-Iter.     Column Row Layer    Maximum-Head-Change  Column Row Layer    Maximum-Flux-Residual          L2-NORM 
          0                 1           2             5    8     1       0.7593724299E+00       5    8    1         0.4115857296E+02      0.7270702115E+02
          0                 2           2             4    8     1      -0.1621433172E+01       5    6    1        -0.8886703744E+02      0.2119200869E+03
          0                 3           2             5    8     1      -0.6982545488E+00       5    8    1        -0.3873955437E+02      0.7671088980E+02
          0                 4           2             5    8     1      -0.2790018537E+00       5    8    1        -0.1589060226E+02      0.1655285756E+02
          0                 5           2             5    8     1       0.1899891654E-01       5    8    1         0.1110614509E+01      0.1127715548E+01
          0                 6           1             5    8     1      -0.7563685090E-03       5    8    1        -0.4537620604E-01      0.4547955644E-01
          0                 7           1             5    8     1       0.9340160694E-05       5    8    1         0.5745611443E-03      0.5775472089E-03

    ------------------------------------------------
       NWT REQUIRED            7 OUTER ITERATIONS 
       AND A TOTAL OF         12 INNER ITERATIONS.
    ------------------------------------------------

 NO OUTPUT CONTROL FOR STRESS PERIOD   31   TIME STEP   26
 
 SOLVING FOR HEAD 
                                                   Max.-Head-Change                         Max.-Flux-Residual
  Residual-Control   Outer-Iter.   Inner-Iter.     Column Row Layer    Maximum-Head-Change  Column Row Layer    Maximum-Flux-Residual          L2-NORM 
          0                 1           2             4    7     1       0.3613464488E+00       4    7    1         0.1905027178E+02      0.4075680017E+02
          0                 2           2             4    7     1       0.1464216605E+00       4    7    1         0.7900168327E+01      0.1236224827E+02
          0                 3           2             4    7     1       0.1594881424E+00       4    7    1         0.8454524860E+01      0.1467983130E+02
          0                 4           2             4    7     1       0.8809555958E-01       4    7    1         0.4716442559E+01      0.7066447635E+01
          0                 5           2             4    7     1       0.4061470798E-01       4    7    1         0.2172435320E+01      0.3274884311E+01
          0                 6           2             4    7     1       0.1873338330E-01       4    7    1         0.1001638345E+01      0.1519197276E+01
          0                 7           2             4    7     1       0.8644546955E-02       4    7    1         0.4620406831E+00      0.7049762540E+00
          0                 8           2             4    7     1       0.3990720642E-02       4    7    1         0.2132262439E+00      0.3272340133E+00
          0                 9           2             4    7     1       0.1843036285E-02       4    7    1         0.9844242254E-01      0.1519330076E+00
          0                10           2             4    7     1       0.8514923749E-03       4    7    1         0.4546693144E-01      0.7055751909E-01
                                                   Max.-Head-Change                         Max.-Flux-Residual
  Residual-Control   Outer-Iter.   Inner-Iter.     Column Row Layer    Maximum-Head-Change  Column Row Layer    Maximum-Flux-Residual          L2-NORM 
          0                11           2             4    7     1       0.3935349028E-03       4    7    1         0.2100736920E-01      0.3277337470E-01
          0                12           2             4    7     1       0.1819420542E-03       4    7    1         0.9709609168E-02      0.1522566421E-01
          0                13           1             4    7     1       0.8414385911E-04       4    7    1         0.4489290390E-02      0.7074572986E-02

    ------------------------------------------------
       NWT REQUIRED           13 OUTER ITERATIONS 
       AND A TOTAL OF         25 INNER ITERATIONS.
    ------------------------------------------------

 NO OUTPUT CONTROL FOR STRESS PERIOD   31   TIME STEP   27
 
 SOLVING FOR HEAD 
                                                   Max.-Head-Change                         Max.-Flux-Residual
  Residual-Control   Outer-Iter.   Inner-Iter.     Column Row Layer    Maximum-Head-Change  Column Row Layer    Maximum-Flux-Residual          L2-NORM 
          0                 1           2             4    6     1       0.9027715458E+00       4    6    1         0.4846026500E+02      0.7647727026E+02
          0                 2           2             4    6     1       0.4152569970E+00       4    6    1         0.2224803741E+02      0.3543486035E+02
          0                 3           2             4    6     1       0.1911240557E+00       4    6    1         0.1023784386E+02      0.1652154175E+02
          0                 4           2             4    6     1       0.8801737689E-01       4    6    1         0.4712366239E+01      0.7704759483E+01
          0                 5           2             4    6     1       0.4055724793E-01       4    6    1         0.2170410741E+01      0.3594389095E+01
          0                 6           2             4    6     1       0.1869855846E-01       4    6    1         0.1000198468E+01      0.1677300609E+01
          0                 7           2             4    6     1       0.8625415409E-02       4    6    1         0.4611781652E+00      0.7829050904E+00
          0                 8           2             4    6     1       0.3980859927E-02       4    6    1         0.2127560563E+00      0.3655182878E+00
          0                 9           2             4    6     1       0.1838195041E-02       4    6    1         0.9820163564E-01      0.1706875208E+00
          0                10           2             4    6     1       0.8492138083E-03       4    6    1         0.4534944732E-01      0.7972209764E-01
                                                   Max.-Head-Change                         Max.-Flux-Residual
  Residual-Control   Outer-Iter.   Inner-Iter.     Column Row Layer    Maximum-Head-Change  Column Row Layer    Maximum-Flux-Residual          L2-NORM 
          0                11           2             4    6     1       0.3925060305E-03       4    6    1         0.2095244718E-01      0.3724194437E-01
          0                12           2             4    6     1       0.1814983352E-03       4    6    1         0.9685010326E-02      0.1740025947E-01
          0                13           1             4    6     1       0.8396334534E-04       4    6    1         0.4478795398E-02      0.8130980795E-02

    ------------------------------------------------
       NWT REQUIRED           13 OUTER ITERATIONS 
       AND A TOTAL OF         25 INNER ITERATIONS.
    ------------------------------------------------

 NO OUTPUT CONTROL FOR STRESS PERIOD   31   TIME STEP   28
 
 SOLVING FOR HEAD 
     PET DIFF ERROR     6    4    0.2245311680E-08    0.1500000053E-06
     PET DIFF ERROR     6    5    0.2245318220E-08    0.1500000053E-06
     PET DIFF ERROR     7    4    0.2245318269E-08    0.1500000053E-06
     PET DIFF ERROR     7    5    0.2245311680E-08    0.1500000053E-06
     PET DIFF ERROR     8    4    0.2245318269E-08    0.1500000053E-06
     PET DIFF ERROR     8    5    0.2245314982E-08    0.1500000053E-06
                                                   Max.-Head-Change                         Max.-Flux-Residual
  Residual-Control   Outer-Iter.   Inner-Iter.     Column Row Layer    Maximum-Head-Change  Column Row Layer    Maximum-Flux-Residual          L2-NORM 
          0                 1           2             4    7     1       0.5620484704E+00       4    7    1         0.2949495091E+02      0.6347982884E+02
     PET DIFF ERROR     6    4    0.2245311680E-08    0.1500000053E-06
     PET DIFF ERROR     6    5    0.2245318220E-08    0.1500000053E-06
     PET DIFF ERROR     7    4    0.2245318269E-08    0.1500000053E-06
     PET DIFF ERROR     7    5    0.2245311680E-08    0.1500000053E-06
     PET DIFF ERROR     8    4    0.2245318269E-08    0.1500000053E-06
     PET DIFF ERROR     8    5    0.2245314982E-08    0.1500000053E-06
          0                 2           2             4    7     1       0.2653050198E+00       4    7    1         0.1391918167E+02      0.2953667895E+02
     PET DIFF ERROR     6    4    0.2245311680E-08    0.1500000053E-06
     PET DIFF ERROR     6    5    0.2245318220E-08    0.1500000053E-06
     PET DIFF ERROR     7    4    0.2245318269E-08    0.1500000053E-06
     PET DIFF ERROR     7    5    0.2245311680E-08    0.1500000053E-06
     PET DIFF ERROR     8    4    0.2245318269E-08    0.1500000053E-06
     PET DIFF ERROR     8    5    0.2245314982E-08    0.1500000053E-06
          0                 3           2             4    7     1       0.1251859958E+00       4    7    1         0.6570644050E+01      0.1380961512E+02
     PET DIFF ERROR     6    4    0.2245311680E-08    0.1500000053E-06
     PET DIFF ERROR     6    5    0.2245318220E-08    0.1500000053E-06
     PET DIFF ERROR     7    4    0.2245318269E-08    0.1500000053E-06
     PET DIFF ERROR     7    5    0.2245311680E-08    0.1500000053E-06
     PET DIFF ERROR     8    4    0.2245318269E-08    0.1500000053E-06
     PET DIFF ERROR     8    5    0.2245314982E-08    0.1500000053E-06
          0                 4           2             4    7     1       0.5904896248E-01       4    7    1         0.3100164789E+01      0.6456775332E+01
     PET DIFF ERROR     6    4    0.2245311680E-08    0.1500000053E-06
     PET DIFF ERROR     6    5    0.2245318220E-08    0.1500000053E-06
     PET DIFF ERROR     7    4    0.2245318269E-08    0.1500000053E-06
     PET DIFF ERROR     7    5    0.2245311680E-08    0.1500000053E-06
     PET DIFF ERROR     8    4    0.2245318269E-08    0.1500000053E-06
     PET DIFF ERROR     8    5    0.2245314982E-08    0.1500000053E-06
          0                 5           2             4    7     1       0.2784334728E-01       4    7    1         0.1462232654E+01      0.3019281737E+01
     PET DIFF ERROR     6    4    0.2245311680E-08    0.1500000053E-06
     PET DIFF ERROR     6    5    0.2245318220E-08    0.1500000053E-06
     PET DIFF ERROR     7    4    0.2245318269E-08    0.1500000053E-06
     PET DIFF ERROR     7    5    0.2245311680E-08    0.1500000053E-06
     PET DIFF ERROR     8    4    0.2245318269E-08    0.1500000053E-06
     PET DIFF ERROR     8    5    0.2245314982E-08    0.1500000053E-06
          0                 6           2             4    7     1       0.1312470188E-01       4    7    1         0.6894460637E+00      0.1411965753E+01
     PET DIFF ERROR     6    4    0.2245311680E-08    0.1500000053E-06
     PET DIFF ERROR     6    5    0.2245318220E-08    0.1500000053E-06
     PET DIFF ERROR     7    4    0.2245318269E-08    0.1500000053E-06
     PET DIFF ERROR     7    5    0.2245311680E-08    0.1500000053E-06
     PET DIFF ERROR     8    4    0.2245318269E-08    0.1500000053E-06
     PET DIFF ERROR     8    5    0.2245314982E-08    0.1500000053E-06
          0                 7           2             4    7     1       0.6184750859E-02       4    7    1         0.3249705411E+00      0.6603537011E+00
     PET DIFF ERROR     6    4    0.2245311680E-08    0.1500000053E-06
     PET DIFF ERROR     6    5    0.2245318220E-08    0.1500000053E-06
     PET DIFF ERROR     7    4    0.2245318269E-08    0.1500000053E-06
     PET DIFF ERROR     7    5    0.2245311680E-08    0.1500000053E-06
     PET DIFF ERROR     8    4    0.2245318269E-08    0.1500000053E-06
     PET DIFF ERROR     8    5    0.2245314982E-08    0.1500000053E-06
          0                 8           2             4    7     1       0.2913569861E-02       4    7    1         0.1531275554E+00      0.3088572641E+00
     PET DIFF ERROR     6    4    0.2245311680E-08    0.1500000053E-06
     PET DIFF ERROR     6    5    0.2245318220E-08    0.1500000053E-06
     PET DIFF ERROR     7    4    0.2245318269E-08    0.1500000053E-06
     PET DIFF ERROR     7    5    0.2245311680E-08    0.1500000053E-06
     PET DIFF ERROR     8    4    0.2245318269E-08    0.1500000053E-06
     PET DIFF ERROR     8    5    0.2245314982E-08    0.1500000053E-06
          0                 9           2             4    7     1       0.1372159575E-02       4    7    1         0.7213301958E-01      0.1444658726E+00
     PET DIFF ERROR     6    4    0.2245311680E-08    0.1500000053E-06
     PET DIFF ERROR     6    5    0.2245318220E-08    0.1500000053E-06
     PET DIFF ERROR     7    4    0.2245318269E-08    0.1500000053E-06
     PET DIFF ERROR     7    5    0.2245311680E-08    0.1500000053E-06
     PET DIFF ERROR     8    4    0.2245318269E-08    0.1500000053E-06
     PET DIFF ERROR     8    5    0.2245314982E-08    0.1500000053E-06
          0                10           2             4    7     1       0.6460483943E-03       4    7    1         0.3396970388E-01      0.6757664239E-01
     PET DIFF ERROR     6    4    0.2245311680E-08    0.1500000053E-06
     PET DIFF ERROR     6    5    0.2245318220E-08    0.1500000053E-06
     PET DIFF ERROR     7    4    0.2245318269E-08    0.1500000053E-06
     PET DIFF ERROR     7    5    0.2245311680E-08    0.1500000053E-06
     PET DIFF ERROR     8    4    0.2245318269E-08    0.1500000053E-06
     PET DIFF ERROR     8    5    0.2245314982E-08    0.1500000053E-06
                                                   Max.-Head-Change                         Max.-Flux-Residual
  Residual-Control   Outer-Iter.   Inner-Iter.     Column Row Layer    Maximum-Head-Change  Column Row Layer    Maximum-Flux-Residual          L2-NORM 
          0                11           2             4    7     1       0.3040967776E-03       4    7    1         0.1599305980E-01      0.3161183702E-01
     PET DIFF ERROR     6    4    0.2245311680E-08    0.1500000053E-06
     PET DIFF ERROR     6    5    0.2245318220E-08    0.1500000053E-06
     PET DIFF ERROR     7    4    0.2245318269E-08    0.1500000053E-06
     PET DIFF ERROR     7    5    0.2245311680E-08    0.1500000053E-06
     PET DIFF ERROR     8    4    0.2245318269E-08    0.1500000053E-06
     PET DIFF ERROR     8    5    0.2245314982E-08    0.1500000053E-06
          0                12           2             4    7     1       0.1431033540E-03       4    7    1         0.7527635330E-02      0.1478845184E-01
     PET DIFF ERROR     6    4    0.2245311680E-08    0.1500000053E-06
     PET DIFF ERROR     6    5    0.2245318220E-08    0.1500000053E-06
     PET DIFF ERROR     7    4    0.2245318269E-08    0.1500000053E-06
     PET DIFF ERROR     7    5    0.2245311680E-08    0.1500000053E-06
     PET DIFF ERROR     8    4    0.2245318269E-08    0.1500000053E-06
     PET DIFF ERROR     8    5    0.2245314982E-08    0.1500000053E-06
          0                13           1             4    7     1       0.6732614395E-04       4    7    1         0.3542237335E-02      0.6918529398E-02

    ------------------------------------------------
       NWT REQUIRED           13 OUTER ITERATIONS 
       AND A TOTAL OF         25 INNER ITERATIONS.
    ------------------------------------------------

 NO OUTPUT CONTROL FOR STRESS PERIOD   31   TIME STEP   29
     PET DIFF ERROR     6    4    0.2245311680E-08    0.1500000053E-06
     PET DIFF ERROR     6    5    0.2245318220E-08    0.1500000053E-06
     PET DIFF ERROR     7    4    0.2245318269E-08    0.1500000053E-06
     PET DIFF ERROR     7    5    0.2245311680E-08    0.1500000053E-06
     PET DIFF ERROR     8    4    0.2245318269E-08    0.1500000053E-06
     PET DIFF ERROR     8    5    0.2245314982E-08    0.1500000053E-06
 
 SOLVING FOR HEAD 
                                                   Max.-Head-Change                         Max.-Flux-Residual
  Residual-Control   Outer-Iter.   Inner-Iter.     Column Row Layer    Maximum-Head-Change  Column Row Layer    Maximum-Flux-Residual          L2-NORM 
          0                 1           2             5    8     1       0.7553493468E+00       5    8    1         0.4094620936E+02      0.7038950822E+02
          0                 2           2             4    8     1      -0.1627705181E+01       5    6    1        -0.8924043345E+02      0.2130324649E+03
          0                 3           2             5    8     1      -0.6989627389E+00       5    8    1        -0.3879251958E+02      0.7542961312E+02
          0                 4           2             5    8     1      -0.2757592541E+00       5    8    1        -0.1570552431E+02      0.1634547342E+02
          0                 5           2             5    8     1       0.1877817223E-01       5    8    1         0.1097775738E+01      0.1114302652E+01
          0                 6           1             5    8     1      -0.7475800794E-03       5    8    1        -0.4486023312E-01      0.4495356800E-01
          0                 7           1             5    8     1       0.9231635350E-05       5    8    1         0.5685985329E-03      0.5693032484E-03

    ------------------------------------------------
       NWT REQUIRED            7 OUTER ITERATIONS 
       AND A TOTAL OF         12 INNER ITERATIONS.
    ------------------------------------------------

 NO OUTPUT CONTROL FOR STRESS PERIOD   31   TIME STEP   30



 STREAM LISTING     PERIOD     31   STEP       30

 LAYER ROW COL. STREAM  RCH.  FLOW INTO     FLOW TO   FLOW OUT OF   OVRLND.     DIRECT     STREAM       STREAM     STREAM     STREAM   STREAMBED  STREAMBED
                SEG.NO.  NO.  STRM. RCH.    AQUIFER    STRM. RCH.    RUNOFF     PRECIP       ET          HEAD       DEPTH      WIDTH   CONDCTNC.   GRADIENT

   1    1    1     1     1    6.2248E+01  3.7978E-01   6.1868E+01  0.000E+00  0.000E+00  0.000E+00  1.09460E+03  1.553E+00  1.854E+01  8.342E-02  1.518E+00
   1    2    2     1     2    6.1868E+01  5.8816E-01   6.1280E+01  0.000E+00  0.000E+00  0.000E+00  1.08961E+03  1.547E+00  1.848E+01  1.294E-01  1.516E+00
   1    3    3     1     3    6.1280E+01  5.0162E-01   6.0779E+01  0.000E+00  0.000E+00  0.000E+00  1.08396E+03  1.540E+00  1.841E+01  1.105E-01  1.513E+00
   1    3    4     1     4    6.0779E+01  4.6193E-01   6.0317E+01  0.000E+00  0.000E+00  0.000E+00  1.07894E+03  1.534E+00  1.836E+01  1.019E-01  1.511E+00
   1    4    5     2     1    5.8317E+01  3.9026E-01   5.7926E+01  0.000E+00  0.000E+00  0.000E+00  1.07394E+03  2.003E+00  1.200E+01  7.800E-02  1.668E+00
   1    5    6     2     2    5.7926E+01  2.9977E-01   5.7627E+01  0.000E+00  0.000E+00  0.000E+00  1.06851E+03  1.996E+00  1.200E+01  6.000E-02  1.665E+00
   1    6    6     2     3    5.7627E+01  2.9940E-01   5.7327E+01  0.000E+00  0.000E+00  0.000E+00  1.06378E+03  1.990E+00  1.200E+01  6.000E-02  1.663E+00
   1    7    6     2     4    5.7327E+01  2.9902E-01   5.7028E+01  0.000E+00  0.000E+00  0.000E+00  1.05906E+03  1.984E+00  1.200E+01  6.000E-02  1.661E+00
   1    8    6     2     5    5.7028E+01  2.9865E-01   5.6730E+01  0.000E+00  0.000E+00  0.000E+00  1.05434E+03  1.977E+00  1.200E+01  6.000E-02  1.659E+00
   1    3    5     3     1    2.0000E+00  2.8252E-01   1.7175E+00  0.000E+00  0.000E+00  0.000E+00  1.07555E+03  1.909E+00  9.636E+00  7.227E-02  1.955E+00
   1    3    6     3     2    1.7175E+00  2.4905E-01   1.4684E+00  0.000E+00  0.000E+00  0.000E+00  1.07264E+03  1.727E+00  8.909E+00  6.682E-02  1.864E+00
   1    3    7     3     3    1.4684E+00  1.9718E-01   1.2712E+00  0.000E+00  0.000E+00  0.000E+00  1.06987E+03  1.555E+00  8.218E+00  5.547E-02  1.777E+00
   1    4    8     3     4    1.2712E+00  2.2567E-01   1.0456E+00  0.000E+00  0.000E+00  0.000E+00  1.06682E+03  1.364E+00  7.455E+00  6.709E-02  1.682E+00
   1    5    8     3     5    1.0456E+00  1.5790E-01   8.8768E-01  0.000E+00  0.000E+00  0.000E+00  1.06362E+03  1.164E+00  6.655E+00  4.991E-02  1.582E+00
   1    6    8     3     6    8.8768E-01  5.5980E-02   8.3170E-01  0.000E+00  0.000E+00  0.000E+00  1.06158E+03  1.036E+00  6.145E+00  1.844E-02  1.518E+00
   1    5   10     4     1    1.0000E+01  9.0919E-02   9.9091E+00  0.000E+00  0.000E+00  0.000E+00  1.07836E+03  6.368E-01  1.000E+01  2.500E-02  1.212E+00
   1    5    9     4     2    9.9091E+00  1.8158E-01   9.7275E+00  0.000E+00  0.000E+00  0.000E+00  1.07154E+03  6.315E-01  1.000E+01  5.000E-02  1.211E+00
   1    6    8     4     3    9.7275E+00  1.2689E-01   9.6006E+00  0.000E+00  0.000E+00  0.000E+00  1.06381E+03  6.256E-01  1.000E+01  3.500E-02  1.209E+00
   1    6    8     5     1    1.0432E+01  2.2686E-01   1.0205E+01  0.000E+00  0.000E+00  0.000E+00  1.05868E+03  6.790E-01  1.542E+01  6.166E-02  1.226E+00
   1    7    7     5     2    1.0205E+01  2.7894E-01   9.9265E+00  0.000E+00  0.000E+00  0.000E+00  1.05417E+03  6.732E-01  1.519E+01  7.594E-02  1.224E+00
   1    8    7     5     3    9.9265E+00  1.9221E-01   9.7343E+00  0.000E+00  0.000E+00  0.000E+00  1.04992E+03  6.676E-01  1.497E+01  5.241E-02  1.223E+00
   1    8    6     5     4    9.7343E+00  1.3577E-01   9.5985E+00  0.000E+00  0.000E+00  0.000E+00  1.04691E+03  6.637E-01  1.482E+01  3.706E-02  1.221E+00
   1    9    6     6     1    9.5985E+00  2.2097E-01   9.3776E+00  0.000E+00  0.000E+00  0.000E+00  1.04341E+03  6.828E-01  1.200E+01  6.000E-02  1.228E+00
   1   10    7     6     2    9.3776E+00  2.2039E-01   9.1572E+00  0.000E+00  0.000E+00  0.000E+00  1.03885E+03  6.732E-01  1.200E+01  6.000E-02  1.224E+00
   1   11    7     6     3    9.1572E+00  2.1981E-01   8.9374E+00  0.000E+00  0.000E+00  0.000E+00  1.03430E+03  6.636E-01  1.200E+01  6.000E-02  1.221E+00
   1   12    7     6     4    8.9374E+00  2.1923E-01   8.7181E+00  0.000E+00  0.000E+00  0.000E+00  1.02974E+03  6.539E-01  1.200E+01  6.000E-02  1.218E+00
   1   13    7     6     5    8.7181E+00 -5.7310E-02   8.7754E+00  0.000E+00  0.000E+00  0.000E+00  1.02656E+03  6.502E-01  1.200E+01  2.400E-01 -7.960E-02
   1   14    9     7     1    1.5000E+02  1.3645E+00   1.4864E+02  0.000E+00  0.000E+00  0.000E+00  1.03987E+03  2.288E+00  5.529E+01  5.593E-01  8.132E-01
   1   13    8     7     2    1.4864E+02  1.9316E+00   1.4670E+02  0.000E+00  0.000E+00  0.000E+00  1.03478E+03  2.279E+00  5.525E+01  6.148E-01  1.047E+00
   1   13    7     7     3    1.4670E+02  1.6141E+00   1.4509E+02  0.000E+00  0.000E+00  0.000E+00  1.02969E+03  2.269E+00  5.521E+01  5.584E-01  9.635E-01
   1   13    6     8     1    1.5387E+02  9.4684E-01   1.5292E+02  0.000E+00  0.000E+00  0.000E+00  1.02472E+03  2.841E+00  4.119E+01  4.197E-01  7.520E-01
   1   13    5     8     2    1.5292E+02  2.0266E-01   1.5272E+02  0.000E+00  0.000E+00  0.000E+00  1.01846E+03  2.837E+00  4.113E+01  4.191E-01  1.612E-01
   1   13    4     8     3    1.5272E+02 -2.7771E+00   1.5549E+02  0.000E+00  0.000E+00  0.000E+00  1.01222E+03  2.845E+00  4.126E+01  4.205E+00 -2.202E-01
   1   13    3     8     4    1.5549E+02 -4.0772E+00   1.5957E+02  0.000E+00  0.000E+00  0.000E+00  1.00599E+03  2.869E+00  4.160E+01  4.239E+00 -3.206E-01
   1   13    2     8     5    1.5957E+02 -3.1912E+00   1.6276E+02  0.000E+00  0.000E+00  0.000E+00  9.99769E+02  2.894E+00  4.196E+01  4.276E+00 -2.488E-01
   1   13    1     8     6    1.6276E+02 -2.3605E+00   1.6512E+02  0.000E+00  0.000E+00  0.000E+00  9.94787E+02  2.912E+00  4.223E+01  2.582E+00 -3.047E-01
   1    8    6     9     1    5.6730E+01  0.0000E+00   5.6730E+01  0.000E+00  0.000E+00  0.000E+00  1.08517E+03  6.420E+00  4.000E+00  0.000E+00  3.140E+00
   1    8    5     9     2    5.6730E+01  0.0000E+00   5.6730E+01  0.000E+00  0.000E+00  0.000E+00  1.08467E+03  6.420E+00  4.000E+00  0.000E+00  3.140E+00





UNSATURATED ZONE PACKAGE VOLUMETRIC BUDGET FOR  TIME STEP    30 STRESS PERIOD   31
  ------------------------------------------------------------------------------



     CUMULATIVE VOLUMES      L**3       RATES FOR THIS TIME STEP      L**3/T
     ------------------                 ------------------------

           IN:                                      IN:
           ---                                      ---
        INFILTRATION =  6873327763.4253          INFILTRATION =         657.5782

          OUT:                                     OUT:
          ----                                     ----
              UZF ET =   955809310.2845                UZF ET =          23.3175
        UZF RECHARGE =  5048939467.2497          UZF RECHARGE =       0.0000E+00

            IN - OUT =   868578985.8911              IN - OUT =         634.2607

          STORAGE:                                 STORAGE:
          --------                                 --------
      STORAGE CHANGE =   869804058.0177        STORAGE CHANGE =         634.2491

 PERCENT DISCREPANCY IS DIFFERENCE BETWEEN IN-OUT MINUS CHANGE IN STORAGE
 DIVIDED BY THE AVERAGE OF IN AND OUT TIMES 100

 PERCENT DISCREPANCY =          -0.00     PERCENT DISCREPANCY =           0.00






1
  VOLUMETRIC BUDGET FOR AGRICULTURAL FIELDS AT  END OF TIME STEP   30, STRESS PERIOD  31
  ------------------------------------------------------------------------------

     CUMULATIVE VOLUMES      L**3       RATES FOR THIS TIME STEP      L**3/T
     ------------------                 ------------------------

           IN:                                      IN:
           ---                                      ---
               AG WELLS  =  6117960704.0000                 AG WELLS  =         600.0000
      DIVERSION SEGMENTS =   688451648.0000        DIVERSION SEGMENTS =          56.7295
       IRRIGATION PONDS  =           0.0000         IRRIGATION PONDS  =           0.0000
           GW IRRIGATION =           0.0000             GW IRRIGATION =           0.0000
           SW IRRIGATION =           0.0000             SW IRRIGATION =           0.0000
        SYSTEM LOSSES GW =           0.0000          SYSTEM LOSSES GW =           0.0000
        SYSTEM LOSSES SW =           0.0000          SYSTEM LOSSES SW =           0.0000

                TOTAL IN =  6806412288.0000                  TOTAL IN =         656.7295

          OUT:                                     OUT:
          ----                                     ----
               AG WELLS  =           0.0000                 AG WELLS  =           0.0000
      DIVERSION SEGMENTS =           0.0000        DIVERSION SEGMENTS =           0.0000
       IRRIGATION PONDS  =           0.0000         IRRIGATION PONDS  =           0.0000
           GW IRRIGATION =  6117960704.0000             GW IRRIGATION =         600.0000
           SW IRRIGATION =   688465088.0000             SW IRRIGATION =          56.7307
        SYSTEM LOSSES GW =           0.0000          SYSTEM LOSSES GW =           0.0000
        SYSTEM LOSSES SW =           0.0000          SYSTEM LOSSES SW =           0.0000

               TOTAL OUT =  6806425600.0000                 TOTAL OUT =         656.7307

                IN - OUT =      -13312.0000                  IN - OUT =      -1.1597E-03

     PERCENT DISCREPANCY =          -0.00         PERCENT DISCREPANCY =          -0.00



1
  VOLUMETRIC BUDGET FOR ENTIRE MODEL AT END OF TIME STEP   30, STRESS PERIOD  31
  ------------------------------------------------------------------------------

     CUMULATIVE VOLUMES      L**3       RATES FOR THIS TIME STEP      L**3/T
     ------------------                 ------------------------

           IN:                                      IN:
           ---                                      ---
             STORAGE     =  5688475648.0000               STORAGE     =         600.3552
       CONSTANT HEAD     =           0.0000         CONSTANT HEAD     =           0.0000
     HEAD DEP BOUNDS     =    22616720.0000       HEAD DEP BOUNDS     =           0.2877
      STREAM LEAKAGE     =   970924032.0000        STREAM LEAKAGE     =          12.8602
        UZF RECHARGE     =  5048940032.0000          UZF RECHARGE     =           0.0000
               GW ET     =           0.0000                 GW ET     =           0.0000
     SURFACE LEAKAGE     =           0.0000       SURFACE LEAKAGE     =           0.0000
           AG WELLS      =           0.0000             AG WELLS      =           0.0000

                TOTAL IN = 11730956288.0000                  TOTAL IN =         613.5031

          OUT:                                     OUT:
          ----                                     ----
             STORAGE     =  4776915968.0000               STORAGE     =           0.7472
       CONSTANT HEAD     =           0.0000         CONSTANT HEAD     =           0.0000
     HEAD DEP BOUNDS     =    22963610.0000       HEAD DEP BOUNDS     =           0.2927
      STREAM LEAKAGE     =   811591616.0000        STREAM LEAKAGE     =          12.4633
        UZF RECHARGE     =           0.0000          UZF RECHARGE     =           0.0000
               GW ET     =     1409387.3750                 GW ET     =           0.0000
     SURFACE LEAKAGE     =           0.0000       SURFACE LEAKAGE     =           0.0000
           AG WELLS      =  6117960704.0000             AG WELLS      =         600.0000

               TOTAL OUT = 11730841600.0000                 TOTAL OUT =         613.5031

                IN - OUT =      114688.0000                  IN - OUT =           0.0000

     PERCENT DISCREPANCY =           0.00         PERCENT DISCREPANCY =           0.00






         TIME SUMMARY AT END OF TIME STEP   30 IN STRESS PERIOD   31
                    SECONDS     MINUTES      HOURS       DAYS        YEARS
                    -----------------------------------------------------------
   TIME STEP LENGTH  87667.      1461.1      24.352      1.0147     2.77799E-03
 STRESS PERIOD TIME 2.63000E+06  43833.      730.56      30.440     8.33397E-02
         TOTAL TIME 7.89864E+07 1.31644E+06  21941.      914.20      2.5029    
1
1
                            STRESS PERIOD NO.   32, LENGTH =   2630000.    
                            -----------------------------------------------

                              NUMBER OF TIME STEPS =    30

                               MULTIPLIER FOR DELT =     1.000

                            INITIAL TIME STEP SIZE =   87666.66    

 REUSING NON-PARAMETER GHB CELLS FROM LAST STRESS PERIOD

      2 GHB CELLS

 REUSING STREAM SEGMENT DATA FROM LAST STRESS PERIOD



            AREAL INFILTRATION RATE
 READING ON UNIT   19 WITH FORMAT: (FREE)              

            1           2           3           4           5           6           7           8           9          10
 ........................................................................................................................
   1   1.0000E-10  2.0000E-10   0.000       0.000       0.000       0.000       0.000       0.000       0.000       0.000    
   2   2.0000E-10  1.0000E-10  2.0000E-10   0.000       0.000      8.0000E-10  8.0000E-10  5.0000E-10   0.000       0.000    
   3    0.000      5.0000E-10  1.0000E-10  1.0000E-10  8.0000E-10  8.0000E-10  5.0000E-10  5.0000E-10   0.000       0.000    
   4   8.0000E-10  5.0000E-10  1.0000E-10  1.0000E-10  1.0000E-10  1.0000E-10  1.0000E-10  1.0000E-10  2.0000E-10   0.000    
   5   8.0000E-10  5.0000E-10  1.0000E-10  1.0000E-10  1.0000E-10  1.0000E-10  1.0000E-10  1.0000E-10  1.0000E-10  1.0000E-10
   6   8.0000E-10  5.0000E-10  5.0000E-10  2.0000E-10  2.0000E-10  1.0000E-10  1.0000E-10  1.0000E-10  1.0000E-10  5.0000E-10
   7   8.0000E-10  5.0000E-10  5.0000E-10  2.0000E-10  2.0000E-10  1.0000E-10  1.0000E-10  2.0000E-10  2.0000E-10   0.000    
   8    0.000      5.0000E-10  5.0000E-10  2.0000E-10  2.0000E-10  1.0000E-10  1.0000E-10  2.0000E-10  5.0000E-10   0.000    
   9    0.000      5.0000E-10  5.0000E-10  2.0000E-10  2.0000E-10  1.0000E-10  1.0000E-10  2.0000E-10  5.0000E-10   0.000    
  10    0.000      5.0000E-10  5.0000E-10  2.0000E-10  2.0000E-10  1.0000E-10  1.0000E-10  2.0000E-10  5.0000E-10  8.0000E-10
  11    0.000      1.0000E-10  1.0000E-10  1.0000E-10  1.0000E-10  1.0000E-10  1.0000E-10  2.0000E-10  5.0000E-10   0.000    
  12   1.0000E-10  1.0000E-10  1.0000E-10  1.0000E-10  1.0000E-10  1.0000E-10  1.0000E-10  1.0000E-10  2.0000E-10   0.000    
  13   1.0000E-10  1.0000E-10  2.0000E-10  2.0000E-10  2.0000E-10  2.0000E-10  2.0000E-10  1.0000E-10  1.0000E-10   0.000    
  14    0.000      2.0000E-10  5.0000E-10  5.0000E-10  5.0000E-10  5.0000E-10  5.0000E-10  2.0000E-10  1.0000E-10   0.000    
  15    0.000       0.000      8.0000E-10  8.0000E-10  8.0000E-10  8.0000E-10   0.000       0.000       0.000       0.000    

                  ET RATE =  4.000000E-07

 USING ET EXTINCTION DEPTH FROM PREVIOUS STRESS PERIOD. CURRENT PERIOD IS:      32

 USING EXTINCTION WATER CONTENT FROM PREVIOUS STRESS PERIOD. CURRENT PERIOD IS:      32

 USING AIR ENTRY PRESSURE FROM PREVIOUS STRESS PERIOD. CURRENT PERIOD IS:      32

 USING ROOT PRESSURE HEAD FROM PREVIOUS STRESS PERIOD. CURRENT PERIOD IS:      32

 USING ROOT ACTIVITY FROM PREVIOUS STRESS PERIOD. CURRENT PERIOD IS:      32

 PROCESSING AG STRESS PERIOD DATA

 READING AG STRESS PERIOD DATA

 READING IRRIGATION SEGMENT

 READING IRRIGATION WELL

 READING SUPPLEMENTAL WELL

 NO IRRPOND OR REUSING IRRPOND DATA FROM LAST STRESS PERIOD

 END PROCESSING AG STRESS PERIOD DATA OPTIONS
 
 SOLVING FOR HEAD 
                                                   Max.-Head-Change                         Max.-Flux-Residual
  Residual-Control   Outer-Iter.   Inner-Iter.     Column Row Layer    Maximum-Head-Change  Column Row Layer    Maximum-Flux-Residual          L2-NORM 
          0                 1           2             4    7     1       0.4032426470E+00       4    7    1         0.2136229371E+02      0.3996250722E+02
          0                 2           2             4    6     1      -0.1053682331E+00       4    6    1        -0.5830266482E+01      0.1026380017E+02
          0                 3           2             4    6     1      -0.6394896513E-01       4    6    1        -0.3544619250E+01      0.5276588396E+01
          0                 4           2             4    6     1      -0.3872261154E-01       4    6    1        -0.2150756569E+01      0.2855076306E+01
          0                 5           2             4    6     1      -0.2340558725E-01       4    6    1        -0.1302006574E+01      0.1586190617E+01
          0                 6           2             5    8     1      -0.4363591989E-02       5    8    1        -0.2416348812E+00      0.4393902041E+00
          0                 7           2             5    8     1      -0.2060477523E-02       5    8    1        -0.1140384392E+00      0.2093232079E+00
          0                 8           2             5    8     1      -0.9735121730E-03       5    8    1        -0.5385179727E-01      0.9976912883E-01
          0                 9           2             5    8     1      -0.4602101582E-03       5    8    1        -0.2544472711E-01      0.4757791888E-01
          0                10           2             5    8     1      -0.2176727347E-03       5    8    1        -0.1202916867E-01      0.2269836716E-01
                                                   Max.-Head-Change                         Max.-Flux-Residual
  Residual-Control   Outer-Iter.   Inner-Iter.     Column Row Layer    Maximum-Head-Change  Column Row Layer    Maximum-Flux-Residual          L2-NORM 
          0                11           1             5    8     1      -0.1030093788E-03       5    8    1        -0.5689909751E-02      0.1083317555E-01
          0                12           1             5    8     1      -0.4877153925E-04       5    8    1        -0.2692768375E-02      0.5172212802E-02

    ------------------------------------------------
       NWT REQUIRED           12 OUTER ITERATIONS 
       AND A TOTAL OF         22 INNER ITERATIONS.
    ------------------------------------------------

 NO OUTPUT CONTROL FOR STRESS PERIOD   32   TIME STEP    1
 
 SOLVING FOR HEAD 
                                                   Max.-Head-Change                         Max.-Flux-Residual
  Residual-Control   Outer-Iter.   Inner-Iter.     Column Row Layer    Maximum-Head-Change  Column Row Layer    Maximum-Flux-Residual          L2-NORM 
          0                 1           2             4    6     1       0.7245854224E+00       4    6    1         0.3874356310E+02      0.7013323646E+02
          0                 2           2             4    6     1       0.2394500695E+00       4    6    1         0.1282410841E+02      0.2052934800E+02
          0                 3           2             4    6     1       0.1750688524E+00       4    6    1         0.9335259496E+01      0.1781642928E+02
          0                 4           2             5    8     1      -0.5051778393E-01       5    8    1        -0.2789803045E+01      0.5800519052E+01
          0                 5           2             5    8     1      -0.2393335142E-01       5    8    1        -0.1320888246E+01      0.2784121036E+01
          0                 6           2             5    8     1      -0.1134533092E-01       5    8    1        -0.6258256843E+00      0.1337021168E+01
          0                 7           2             5    8     1      -0.5381173091E-02       5    8    1        -0.2966820877E+00      0.6423114378E+00
          0                 8           2             5    8     1      -0.2553729085E-02       5    8    1        -0.1407260987E+00      0.3086730040E+00
          0                 9           2             4    8     1      -0.1221889949E-02       5    8    1        -0.6678747090E-01      0.1483832425E+00
          0                10           2             4    8     1      -0.5891626830E-03       4    8    1        -0.3202095843E-01      0.7134985856E-01
                                                   Max.-Head-Change                         Max.-Flux-Residual
  Residual-Control   Outer-Iter.   Inner-Iter.     Column Row Layer    Maximum-Head-Change  Column Row Layer    Maximum-Flux-Residual          L2-NORM 
          0                11           2             4    8     1      -0.2840515908E-03       4    8    1        -0.1543916553E-01      0.3431730761E-01
          0                12           2             4    8     1      -0.1369375879E-03       4    8    1        -0.7443424940E-02      0.1650957096E-01
          0                13           1             4    8     1      -0.6601085388E-04       4    8    1        -0.3588275907E-02      0.7944239189E-02

    ------------------------------------------------
       NWT REQUIRED           13 OUTER ITERATIONS 
       AND A TOTAL OF         25 INNER ITERATIONS.
    ------------------------------------------------

 NO OUTPUT CONTROL FOR STRESS PERIOD   32   TIME STEP    2
 
 SOLVING FOR HEAD 
                                                   Max.-Head-Change                         Max.-Flux-Residual
  Residual-Control   Outer-Iter.   Inner-Iter.     Column Row Layer    Maximum-Head-Change  Column Row Layer    Maximum-Flux-Residual          L2-NORM 
          0                 1           2             4    7     1       0.5401832361E+00       4    7    1         0.2831553816E+02      0.6294874156E+02
          0                 2           2             4    8     1      -0.1626021092E+01       5    8    1        -0.8926727952E+02      0.2157424585E+03
          0                 3           2             4    7     1      -0.5707542408E+00       4    7    1        -0.3069580090E+02      0.7075974244E+02
          0                 4           2             4    7     1       0.3886850239E-01       4    7    1         0.2148764258E+01      0.4953502500E+01
          0                 5           2             4    7     1      -0.1546996651E-02       4    7    1        -0.8790300861E-01      0.2026264307E+00
          0                 6           1             4    7     1       0.1908927513E-04       4    7    1         0.1114595789E-02      0.2578640573E-02

    ------------------------------------------------
       NWT REQUIRED            6 OUTER ITERATIONS 
       AND A TOTAL OF         11 INNER ITERATIONS.
    ------------------------------------------------

 NO OUTPUT CONTROL FOR STRESS PERIOD   32   TIME STEP    3
 
 SOLVING FOR HEAD 
                                                   Max.-Head-Change                         Max.-Flux-Residual
  Residual-Control   Outer-Iter.   Inner-Iter.     Column Row Layer    Maximum-Head-Change  Column Row Layer    Maximum-Flux-Residual          L2-NORM 
          0                 1           2             5    8     1       0.3085138213E+00       5    8    1         0.1691027559E+02      0.2437982104E+02
          0                 2           2             4    7     1      -0.1878537072E+01       4    7    1        -0.1008068540E+03      0.2434074991E+03
          0                 3           2             5    8     1      -0.2438072776E+00       5    8    1        -0.1404274874E+02      0.2116562300E+02
          0                 4           2             5    8     1       0.1659916735E-01       5    8    1         0.9765784658E+00      0.1178980943E+01
          0                 5           1             5    8     1      -0.6606762168E-03       5    8    1        -0.3969857848E-01      0.4100728352E-01
          0                 6           1             5    8     1       0.8152441450E-05       5    8    1         0.4994376654E-03      0.5382857736E-03

    ------------------------------------------------
       NWT REQUIRED            6 OUTER ITERATIONS 
       AND A TOTAL OF         10 INNER ITERATIONS.
    ------------------------------------------------

 NO OUTPUT CONTROL FOR STRESS PERIOD   32   TIME STEP    4
 
 SOLVING FOR HEAD 
                                                   Max.-Head-Change                         Max.-Flux-Residual
  Residual-Control   Outer-Iter.   Inner-Iter.     Column Row Layer    Maximum-Head-Change  Column Row Layer    Maximum-Flux-Residual          L2-NORM 
          0                 1           2             4    6     1       0.1754637378E+00       5    6    1         0.9508076968E+01      0.2344575398E+02
          0                 2           2             4    7     1      -0.1879344100E+01       5    6    1        -0.1009507678E+03      0.2470277177E+03
          0                 3           2             4    7     1       0.1279564240E+00       5    6    1         0.7064645974E+01      0.1735931331E+02
          0                 4           2             4    7     1      -0.5091601506E-02       4    6    1        -0.2888699111E+00      0.7169989549E+00
          0                 5           1             4    7     1       0.6278149641E-04       4    7    1         0.3657751939E-02      0.1051524826E-01

    ------------------------------------------------
       NWT REQUIRED            5 OUTER ITERATIONS 
       AND A TOTAL OF          9 INNER ITERATIONS.
    ------------------------------------------------

 NO OUTPUT CONTROL FOR STRESS PERIOD   32   TIME STEP    5
 
 SOLVING FOR HEAD 
                                                   Max.-Head-Change                         Max.-Flux-Residual
  Residual-Control   Outer-Iter.   Inner-Iter.     Column Row Layer    Maximum-Head-Change  Column Row Layer    Maximum-Flux-Residual          L2-NORM 
          0                 1           2             5    6     1       0.2193120769E+00       5    6    1         0.1192086211E+02      0.2847235162E+02
          0                 2           2             4    7     1      -0.1880167431E+01       5    6    1        -0.1011920273E+03      0.2474297417E+03
          0                 3           2             4    7     1       0.1280128177E+00       5    6    1         0.7081627091E+01      0.1738774294E+02
          0                 4           2             4    7     1      -0.5093843838E-02       5    6    1        -0.2895601430E+00      0.7181526597E+00
          0                 5           1             4    7     1       0.6280914795E-04       5    6    1         0.3663941641E-02      0.1052347627E-01

    ------------------------------------------------
       NWT REQUIRED            5 OUTER ITERATIONS 
       AND A TOTAL OF          9 INNER ITERATIONS.
    ------------------------------------------------

 NO OUTPUT CONTROL FOR STRESS PERIOD   32   TIME STEP    6
 
 SOLVING FOR HEAD 
                                                   Max.-Head-Change                         Max.-Flux-Residual
  Residual-Control   Outer-Iter.   Inner-Iter.     Column Row Layer    Maximum-Head-Change  Column Row Layer    Maximum-Flux-Residual          L2-NORM 
          0                 1           2             5    6     1       0.2609744907E+00       5    6    1         0.1420542208E+02      0.3339269685E+02
          0                 2           2             4    7     1      -0.1881058742E+01       5    6    1        -0.1014204616E+03      0.2478179062E+03
          0                 3           2             4    7     1       0.1280738168E+00       5    6    1         0.7097705122E+01      0.1741520610E+02
          0                 4           2             4    7     1      -0.5096269539E-02       5    6    1        -0.2902263356E+00      0.7192702503E+00
          0                 5           1             4    7     1       0.6283906072E-04       5    6    1         0.3672969789E-02      0.1053204514E-01

    ------------------------------------------------
       NWT REQUIRED            5 OUTER ITERATIONS 
       AND A TOTAL OF          9 INNER ITERATIONS.
    ------------------------------------------------

 NO OUTPUT CONTROL FOR STRESS PERIOD   32   TIME STEP    7
 
 SOLVING FOR HEAD 
                                                   Max.-Head-Change                         Max.-Flux-Residual
  Residual-Control   Outer-Iter.   Inner-Iter.     Column Row Layer    Maximum-Head-Change  Column Row Layer    Maximum-Flux-Residual          L2-NORM 
          0                 1           2             5    8     1       0.6013063844E+00       5    8    1         0.3303732395E+02      0.4794167819E+02
          0                 2           2             4    7     1      -0.1881864312E+01       5    6    1        -0.1016369103E+03      0.2404288467E+03
          0                 3           2             5    8     1      -0.5983620204E+00       5    8    1        -0.3413831682E+02      0.3767062596E+02
          0                 4           2             5    8     1       0.4072493568E-01       5    8    1         0.2381974923E+01      0.2474846666E+01
          0                 5           1             5    8     1      -0.1620989353E-02       5    8    1        -0.9718020007E-01      0.9783531647E-01
          0                 6           1             5    8     1       0.2000215533E-04       5    8    1         0.1226452444E-02      0.1254761725E-02

    ------------------------------------------------
       NWT REQUIRED            6 OUTER ITERATIONS 
       AND A TOTAL OF         10 INNER ITERATIONS.
    ------------------------------------------------

 NO OUTPUT CONTROL FOR STRESS PERIOD   32   TIME STEP    8
 
 SOLVING FOR HEAD 
                                                   Max.-Head-Change                         Max.-Flux-Residual
  Residual-Control   Outer-Iter.   Inner-Iter.     Column Row Layer    Maximum-Head-Change  Column Row Layer    Maximum-Flux-Residual          L2-NORM 
          0                 1           2             5    8     1       0.1635865912E+01       5    8    1         0.8992872554E+02      0.1011775981E+03
          0                 2           2             4    7     1      -0.1876298918E+01       4    6    1        -0.1015437918E+03      0.2137103939E+03
          0                 3           2             5    8     1      -0.5340045728E+00       5    8    1        -0.2990681593E+02      0.4159899414E+02
          0                 4           2             5    8     1      -0.3154836586E+00       5    8    1        -0.1791490769E+02      0.1801974681E+02
          0                 5           2             5    8     1      -0.1863923437E+00       5    8    1        -0.1056706648E+02      0.1056741216E+02
          0                 6           2             5    8     1      -0.1101240468E+00       5    8    1        -0.6243518800E+01      0.6243532545E+01
          0                 7           2             5    8     1      -0.6506348046E-01       5    8    1        -0.3688697233E+01      0.3688705957E+01
          0                 8           2             5    8     1      -0.3844075140E-01       5    8    1        -0.2179312881E+01      0.2179318039E+01
          0                 9           2             5    8     1      -0.2271145556E-01       5    8    1        -0.1287556477E+01      0.1287559529E+01
          0                10           2             5    8     1      -0.1341825518E-01       5    8    1        -0.7606973888E+00      0.7606991930E+00
                                                   Max.-Head-Change                         Max.-Flux-Residual
  Residual-Control   Outer-Iter.   Inner-Iter.     Column Row Layer    Maximum-Head-Change  Column Row Layer    Maximum-Flux-Residual          L2-NORM 
          0                11           2             5    8     1      -0.7927655689E-02       5    8    1        -0.4494235062E+00      0.4494245727E+00
          0                12           1             5    8     1      -0.4683720567E-02       5    8    1        -0.2655201228E+00      0.2655207529E+00
          0                13           1             5    8     1      -0.2767161623E-02       5    8    1        -0.1568688258E+00      0.1568691982E+00
          0                14           1             5    8     1      -0.1634840395E-02       5    8    1        -0.9267727450E-01      0.9267749452E-01
          0                15           1             5    8     1      -0.9658583521E-03       5    8    1        -0.5475290616E-01      0.5475303618E-01
          0                16           1             5    8     1      -0.5706223025E-03       5    8    1        -0.3234732417E-01      0.3234740102E-01
          0                17           1             5    8     1      -0.3371174651E-03       5    8    1        -0.1911026807E-01      0.1911031352E-01
          0                18           1             5    8     1      -0.1991640572E-03       5    8    1        -0.1128996024E-01      0.1128998720E-01
          0                19           1             5    8     1      -0.1176624457E-03       5    8    1        -0.6669837443E-02      0.6669853398E-02
          0                20           1             5    8     1      -0.6951235004E-04       5    8    1        -0.3940354403E-02      0.3940363778E-02

    ------------------------------------------------
       NWT REQUIRED           20 OUTER ITERATIONS 
       AND A TOTAL OF         31 INNER ITERATIONS.
    ------------------------------------------------

 NO OUTPUT CONTROL FOR STRESS PERIOD   32   TIME STEP    9
 
 SOLVING FOR HEAD 
                                                   Max.-Head-Change                         Max.-Flux-Residual
  Residual-Control   Outer-Iter.   Inner-Iter.     Column Row Layer    Maximum-Head-Change  Column Row Layer    Maximum-Flux-Residual          L2-NORM 
          0                 1           2             5    8     1       0.2310953782E+01       5    8    1         0.1255567309E+03      0.1881809098E+03
          0                 2           2             4    7     1      -0.1542307041E+01       4    7    1        -0.8352721716E+02      0.1521708164E+03
          0                 3           2             5    7     1      -0.6532603128E+00       5    7    1        -0.3587269600E+02      0.7137160886E+02
          0                 4           2             5    7     1      -0.3948992060E+00       5    7    1        -0.2196566602E+02      0.3705582852E+02
          0                 5           2             5    7     1      -0.2387948467E+00       5    7    1        -0.1325924118E+02      0.2240189027E+02
          0                 6           2             5    7     1      -0.1444376008E+00       5    7    1        -0.8018454747E+01      0.1360096751E+02
          0                 7           2             5    7     1      -0.8738679344E-01       5    7    1        -0.4850069144E+01      0.8259249464E+01
          0                 8           2             5    7     1      -0.5288292356E-01       5    7    1        -0.2934381221E+01      0.5016647308E+01
          0                 9           2             5    7     1      -0.3200987095E-01       5    7    1        -0.1775780760E+01      0.3047761225E+01
          0                10           2             5    7     1      -0.1937967274E-01       5    7    1        -0.1074882195E+01      0.1851980394E+01
                                                   Max.-Head-Change                         Max.-Flux-Residual
  Residual-Control   Outer-Iter.   Inner-Iter.     Column Row Layer    Maximum-Head-Change  Column Row Layer    Maximum-Flux-Residual          L2-NORM 
          0                11           2             5    7     1      -0.1173541973E-01       5    7    1        -0.6507680435E+00      0.1125574484E+01
          0                12           2             5    7     1      -0.7107819787E-02       5    7    1        -0.3940768759E+00      0.6842098884E+00
          0                13           2             5    7     1      -0.4305820709E-02       5    7    1        -0.2386827073E+00      0.4159843200E+00
          0                14           2             5    7     1      -0.2608876941E-02       5    7    1        -0.1445913711E+00      0.2529488372E+00
          0                15           2             5    7     1      -0.1580978301E-02       5    7    1        -0.8760755817E-01      0.1538340367E+00
          0                16           2             5    7     1      -0.9582296331E-03       5    7    1        -0.5309029081E-01      0.9356908687E-01
          0                17           2             5    7     1      -0.5808734435E-03       5    7    1        -0.3217804688E-01      0.5692053658E-01
          0                18           2             5    7     1      -0.3521751361E-03       5    7    1        -0.1950617775E-01      0.3463050947E-01
          0                19           2             5    7     1      -0.2135493491E-03       5    7    1        -0.1182631974E-01      0.2107166978E-01
          0                20           2             5    7     1      -0.1295082639E-03       5    7    1        -0.7171155753E-02      0.1282290044E-01
          0                21           1             4    8     1      -0.7887853901E-04       5    7    1        -0.4348986755E-02      0.7804014952E-02

    ------------------------------------------------
       NWT REQUIRED           21 OUTER ITERATIONS 
       AND A TOTAL OF         41 INNER ITERATIONS.
    ------------------------------------------------

 NO OUTPUT CONTROL FOR STRESS PERIOD   32   TIME STEP   10
 
 SOLVING FOR HEAD 
                                                   Max.-Head-Change                         Max.-Flux-Residual
  Residual-Control   Outer-Iter.   Inner-Iter.     Column Row Layer    Maximum-Head-Change  Column Row Layer    Maximum-Flux-Residual          L2-NORM 
          0                 1           2             5    6     1       0.2394604389E+01       5    6    1         0.1289981011E+03      0.2769336156E+03
          0                 2           2             4    7     1      -0.9476795950E+00       4    7    1        -0.5165233242E+02      0.8602026712E+02
          0                 3           2             4    7     1      -0.5853886491E+00       4    7    1        -0.3189383453E+02      0.5315023242E+02
          0                 4           2             4    7     1      -0.3616962326E+00       4    7    1        -0.1970125409E+02      0.3285026889E+02
          0                 5           2             4    7     1      -0.2235367966E+00       4    7    1        -0.1217293482E+02      0.2031688248E+02
          0                 6           2             4    7     1      -0.1381814614E+00       4    7    1        -0.7523197595E+01      0.1256830075E+02
          0                 7           2             4    7     1      -0.8543541407E-01       4    7    1        -0.4650559506E+01      0.7776462362E+01
          0                 8           2             4    7     1      -0.5283310239E-01       4    7    1        -0.2875378424E+01      0.4812424062E+01
          0                 9           2             4    7     1      -0.3267741953E-01       4    7    1        -0.1778133778E+01      0.2978608725E+01
          0                10           2             4    7     1      -0.2021421561E-01       4    7    1        -0.1099782607E+01      0.1843840135E+01
                                                   Max.-Head-Change                         Max.-Flux-Residual
  Residual-Control   Outer-Iter.   Inner-Iter.     Column Row Layer    Maximum-Head-Change  Column Row Layer    Maximum-Flux-Residual          L2-NORM 
          0                11           2             4    7     1      -0.1250627878E-01       4    7    1        -0.6803247739E+00      0.1141528293E+01
          0                12           2             4    7     1      -0.7738493415E-02       4    7    1        -0.4209081423E+00      0.7068021155E+00
          0                13           2             4    7     1      -0.4788916479E-02       4    7    1        -0.2604443952E+00      0.4376748076E+00
          0                14           2             4    7     1      -0.2963919729E-02       4    7    1        -0.1611739346E+00      0.2710461197E+00
          0                15           2             4    7     1      -0.1834594413E-02       4    7    1        -0.9975220960E-01      0.1678682941E+00
          0                16           2             4    7     1      -0.1135676335E-02       4    7    1        -0.6174393679E-01      0.1039739046E+00
          0                17           2             4    7     1      -0.7030831154E-03       4    7    1        -0.3822140402E-01      0.6440313086E-01
          0                18           2             4    7     1      -0.4353046446E-03       4    7    1        -0.2366225942E-01      0.3989455891E-01
          0                19           2             4    7     1      -0.2695328261E-03       4    7    1        -0.1465008090E-01      0.2471393155E-01
          0                20           2             4    7     1      -0.1669010896E-03       4    7    1        -0.9071002478E-02      0.1531049377E-01
                                                   Max.-Head-Change                         Max.-Flux-Residual
  Residual-Control   Outer-Iter.   Inner-Iter.     Column Row Layer    Maximum-Head-Change  Column Row Layer    Maximum-Flux-Residual          L2-NORM 
          0                21           1             4    7     1      -0.1033554614E-03       4    7    1        -0.5616935403E-02      0.9485357159E-02
          0                22           1             4    7     1      -0.6400770206E-04       4    7    1        -0.3478324418E-02      0.5876699357E-02

    ------------------------------------------------
       NWT REQUIRED           22 OUTER ITERATIONS 
       AND A TOTAL OF         42 INNER ITERATIONS.
    ------------------------------------------------

 NO OUTPUT CONTROL FOR STRESS PERIOD   32   TIME STEP   11
 
 SOLVING FOR HEAD 
                                                   Max.-Head-Change                         Max.-Flux-Residual
  Residual-Control   Outer-Iter.   Inner-Iter.     Column Row Layer    Maximum-Head-Change  Column Row Layer    Maximum-Flux-Residual          L2-NORM 
          0                 1           2             4    6     1       0.2432986221E+01       4    6    1         0.1290873874E+03      0.3041672129E+03
          0                 2           2             5    8     1      -0.5269626271E+00       5    8    1        -0.2916212810E+02      0.6119244659E+02
          0                 3           2             5    8     1      -0.3203278729E+00       5    8    1        -0.1770341300E+02      0.3777491542E+02
          0                 4           2             5    8     1      -0.1948443773E+00       5    8    1        -0.1076261925E+02      0.2331737348E+02
          0                 5           2             5    8     1      -0.1185909270E+00       5    8    1        -0.6546820535E+01      0.1440876330E+02
          0                 6           2             5    8     1      -0.7222340276E-01       5    8    1        -0.3984876754E+01      0.8906120064E+01
          0                 7           2             5    8     1      -0.4401087588E-01       5    8    1        -0.2426954539E+01      0.5506155109E+01
          0                 8           2             5    8     1      -0.2683431488E-01       5    8    1        -0.1478983704E+01      0.3404851375E+01
          0                 9           2             4    7     1      -0.1672185222E-01       5    8    1        -0.9018055838E+00      0.2105863024E+01
          0                10           2             4    7     1      -0.1047922722E-01       4    7    1        -0.5635559408E+00      0.1302679011E+01
                                                   Max.-Head-Change                         Max.-Flux-Residual
  Residual-Control   Outer-Iter.   Inner-Iter.     Column Row Layer    Maximum-Head-Change  Column Row Layer    Maximum-Flux-Residual          L2-NORM 
          0                11           2             4    7     1      -0.6564238472E-02       4    7    1        -0.3531473055E+00      0.8059604709E+00
          0                12           2             4    7     1      -0.4110141279E-02       4    7    1        -0.2212002978E+00      0.4987160311E+00
          0                13           2             4    7     1      -0.2572487990E-02       4    7    1        -0.1384948209E+00      0.3086390652E+00
          0                14           2             4    7     1      -0.1609462509E-02       4    7    1        -0.8667747503E-01      0.1910300118E+00
          0                15           2             4    7     1      -0.1006574134E-02       4    7    1        -0.5422637078E-01      0.1182499638E+00
          0                16           2             4    7     1      -0.6292950854E-03       4    7    1        -0.3391195794E-01      0.7320572888E-01
          0                17           2             4    7     1      -0.3932897723E-03       4    7    1        -0.2120017696E-01      0.4532418757E-01
          0                18           2             4    7     1      -0.2457121093E-03       4    7    1        -0.1324879709E-01      0.2806418710E-01
          0                19           2             4    7     1      -0.1534623018E-03       4    7    1        -0.8276935823E-02      0.1737837800E-01
          0                20           1             4    7     1      -0.9581721440E-04       4    7    1        -0.5169214193E-02      0.1076211076E-01

    ------------------------------------------------
       NWT REQUIRED           20 OUTER ITERATIONS 
       AND A TOTAL OF         39 INNER ITERATIONS.
    ------------------------------------------------

 NO OUTPUT CONTROL FOR STRESS PERIOD   32   TIME STEP   12
 
 SOLVING FOR HEAD 
                                                   Max.-Head-Change                         Max.-Flux-Residual
  Residual-Control   Outer-Iter.   Inner-Iter.     Column Row Layer    Maximum-Head-Change  Column Row Layer    Maximum-Flux-Residual          L2-NORM 
          0                 1           2             4    6     1       0.2396103012E+01       4    6    1         0.1270893612E+03      0.2969208036E+03
          0                 2           2             5    8     1      -0.6426057506E+00       5    8    1        -0.3569256763E+02      0.6615593971E+02
          0                 3           2             5    8     1      -0.3889815708E+00       5    8    1        -0.2157962647E+02      0.4078187781E+02
          0                 4           2             5    8     1      -0.2356293235E+00       5    8    1        -0.1306403922E+02      0.2513868245E+02
          0                 5           2             5    8     1      -0.1428360180E+00       5    8    1        -0.7914035954E+01      0.1551292477E+02
          0                 6           2             5    8     1      -0.8664569564E-01       5    8    1        -0.4797677461E+01      0.9576573528E+01
          0                 7           2             5    8     1      -0.5259569492E-01       5    8    1        -0.2910476633E+01      0.5913857764E+01
          0                 8           2             5    8     1      -0.3194777384E-01       5    8    1        -0.1766814028E+01      0.3653117738E+01
          0                 9           2             5    8     1      -0.1941831407E-01       5    8    1        -0.1073258216E+01      0.2257237108E+01
          0                10           2             5    8     1      -0.1181017383E-01       5    8    1        -0.6523753274E+00      0.1395086395E+01
                                                   Max.-Head-Change                         Max.-Flux-Residual
  Residual-Control   Outer-Iter.   Inner-Iter.     Column Row Layer    Maximum-Head-Change  Column Row Layer    Maximum-Flux-Residual          L2-NORM 
          0                11           2             5    8     1      -0.7187340789E-02       5    8    1        -0.3967930382E+00      0.8624343105E+00
          0                12           2             5    8     1      -0.4376638599E-02       5    8    1        -0.2414888450E+00      0.5332653378E+00
          0                13           2             5    8     1      -0.2666655758E-02       5    8    1        -0.1470584307E+00      0.3297958913E+00
          0                14           2             4    7     1      -0.1653561117E-02       5    8    1        -0.8960575717E-01      0.2039973402E+00
          0                15           2             4    7     1      -0.1035303121E-02       4    7    1        -0.5571857001E-01      0.1262044261E+00
          0                16           2             4    7     1      -0.6479517345E-03       4    7    1        -0.3488374307E-01      0.7808893187E-01
          0                17           2             4    7     1      -0.4053702641E-03       4    7    1        -0.2183105330E-01      0.4832409202E-01
          0                18           2             4    7     1      -0.2535136202E-03       4    7    1        -0.1365717946E-01      0.2990833397E-01
          0                19           2             4    7     1      -0.1584881513E-03       4    7    1        -0.8540594903E-02      0.1851272879E-01
          0                20           1             4    7     1      -0.9904764386E-04       4    7    1        -0.5339024470E-02      0.1146025132E-01

    ------------------------------------------------
       NWT REQUIRED           20 OUTER ITERATIONS 
       AND A TOTAL OF         39 INNER ITERATIONS.
    ------------------------------------------------

 NO OUTPUT CONTROL FOR STRESS PERIOD   32   TIME STEP   13
 
 SOLVING FOR HEAD 
                                                   Max.-Head-Change                         Max.-Flux-Residual
  Residual-Control   Outer-Iter.   Inner-Iter.     Column Row Layer    Maximum-Head-Change  Column Row Layer    Maximum-Flux-Residual          L2-NORM 
          0                 1           2             4    6     1       0.2362526506E+01       4    6    1         0.1252722800E+03      0.2939698850E+03
          0                 2           2             4    8     1      -0.6763895761E+00       4    8    1        -0.3690247258E+02      0.7253023442E+02
          0                 3           2             4    8     1      -0.4173197927E+00       4    8    1        -0.2276067094E+02      0.4443137933E+02
          0                 4           2             5    8     1      -0.2367949609E+00       5    8    1        -0.1313599325E+02      0.2533918621E+02
          0                 5           2             5    8     1      -0.1425526228E+00       5    8    1        -0.7952833263E+01      0.1469227617E+02
          0                 6           2             5    8     1      -0.8558997690E-01       5    8    1        -0.4784455824E+01      0.8925903912E+01
          0                 7           2             5    8     1      -0.5134962754E-01       5    8    1        -0.2871912380E+01      0.5465562692E+01
          0                 8           2             5    8     1      -0.3080698337E-01       5    8    1        -0.1722864761E+01      0.3351564446E+01
          0                 9           2             5    8     1      -0.1848807746E-01       5    8    1        -0.1033615247E+01      0.2056262305E+01
          0                10           2             5    8     1      -0.1109987979E-01       5    8    1        -0.6203111739E+00      0.1262029083E+01
                                                   Max.-Head-Change                         Max.-Flux-Residual
  Residual-Control   Outer-Iter.   Inner-Iter.     Column Row Layer    Maximum-Head-Change  Column Row Layer    Maximum-Flux-Residual          L2-NORM 
          0                11           2             5    7     1      -0.6728866418E-02       5    8    1        -0.3724338842E+00      0.7748318452E+00
          0                12           2             5    7     1      -0.4164605255E-02       5    7    1        -0.2264837237E+00      0.4758651104E+00
          0                13           2             5    7     1      -0.2576129574E-02       5    7    1        -0.1401639400E+00      0.2923406939E+00
          0                14           2             5    7     1      -0.1592739015E-02       5    7    1        -0.8669615737E-01      0.1796446830E+00
          0                15           2             5    7     1      -0.9842916695E-03       5    7    1        -0.5359799846E-01      0.1104206254E+00
          0                16           2             5    7     1      -0.6080268850E-03       5    7    1        -0.3312085185E-01      0.6788727601E-01
          0                17           2             5    7     1      -0.3754546652E-03       5    7    1        -0.2045860245E-01      0.4174659981E-01
          0                18           2             5    7     1      -0.2317621745E-03       5    7    1        -0.1263245558E-01      0.2567681565E-01
          0                19           2             5    7     1      -0.1430181890E-03       5    7    1        -0.7797428352E-02      0.1579580929E-01
          0                20           1             5    7     1      -0.8822992251E-04       5    7    1        -0.4811494696E-02      0.9718900087E-02

    ------------------------------------------------
       NWT REQUIRED           20 OUTER ITERATIONS 
       AND A TOTAL OF         39 INNER ITERATIONS.
    ------------------------------------------------

 NO OUTPUT CONTROL FOR STRESS PERIOD   32   TIME STEP   14
 
 SOLVING FOR HEAD 
                                                   Max.-Head-Change                         Max.-Flux-Residual
  Residual-Control   Outer-Iter.   Inner-Iter.     Column Row Layer    Maximum-Head-Change  Column Row Layer    Maximum-Flux-Residual          L2-NORM 
          0                 1           2             4    7     1       0.2345719923E+01       4    6    1         0.1236151627E+03      0.2792351529E+03
          0                 2           2             5    6     1      -0.7980856215E+00       5    6    1        -0.4419851530E+02      0.9032821661E+02
          0                 3           2             4    8     1      -0.4845958415E+00       4    8    1        -0.2650071292E+02      0.4733081773E+02
          0                 4           2             4    8     1      -0.2981439729E+00       4    8    1        -0.1630225216E+02      0.2909535950E+02
          0                 5           2             4    8     1      -0.1834571536E+00       4    8    1        -0.1002973243E+02      0.1796520247E+02
          0                 6           2             5    8     1      -0.8946718233E-01       5    8    1        -0.4971287164E+01      0.9648354298E+01
          0                 7           2             5    8     1      -0.5382710321E-01       5    8    1        -0.3004098188E+01      0.5723356759E+01
          0                 8           2             5    8     1      -0.3231977332E-01       5    8    1        -0.1806434270E+01      0.3492717345E+01
          0                 9           2             5    8     1      -0.1939633857E-01       5    8    1        -0.1084443710E+01      0.2141456509E+01
          0                10           2             5    8     1      -0.1164176370E-01       5    8    1        -0.6507816207E+00      0.1314205519E+01
                                                   Max.-Head-Change                         Max.-Flux-Residual
  Residual-Control   Outer-Iter.   Inner-Iter.     Column Row Layer    Maximum-Head-Change  Column Row Layer    Maximum-Flux-Residual          L2-NORM 
          0                11           2             5    8     1      -0.6989905353E-02       5    8    1        -0.3906025624E+00      0.8068480950E+00
          0                12           2             5    7     1      -0.4240877840E-02       5    8    1        -0.2345298098E+00      0.4955199482E+00
          0                13           2             5    7     1      -0.2626580845E-02       5    7    1        -0.1427528315E+00      0.3044119801E+00
          0                14           2             5    7     1      -0.1625819588E-02       5    7    1        -0.8840675334E-01      0.1870618330E+00
          0                15           2             4    7     1      -0.1006568054E-02       5    7    1        -0.5471862543E-01      0.1149801110E+00
          0                16           2             4    7     1      -0.6236278554E-03       4    7    1        -0.3387984643E-01      0.7069125632E-01
          0                17           2             4    7     1      -0.3863436420E-03       4    7    1        -0.2099008688E-01      0.4347162670E-01
          0                18           2             4    7     1      -0.2393237832E-03       4    7    1        -0.1300327389E-01      0.2673841332E-01
          0                19           2             4    7     1      -0.1482381488E-03       4    7    1        -0.8054800723E-02      0.1644931559E-01
          0                20           1             4    7     1      -0.9181098211E-04       4    7    1        -0.4989060189E-02      0.1012129221E-01

    ------------------------------------------------
       NWT REQUIRED           20 OUTER ITERATIONS 
       AND A TOTAL OF         39 INNER ITERATIONS.
    ------------------------------------------------

 NO OUTPUT CONTROL FOR STRESS PERIOD   32   TIME STEP   15
 
 SOLVING FOR HEAD 
                                                   Max.-Head-Change                         Max.-Flux-Residual
  Residual-Control   Outer-Iter.   Inner-Iter.     Column Row Layer    Maximum-Head-Change  Column Row Layer    Maximum-Flux-Residual          L2-NORM 
          0                 1           2             4    7     1       0.2132534446E+01       4    6    1         0.1117059197E+03      0.2689075008E+03
          0                 2           2             5    6     1      -0.8053959198E+00       5    6    1        -0.4449038883E+02      0.9813913602E+02
          0                 3           2             5    7     1      -0.4786036639E+00       5    6    1        -0.2630730636E+02      0.5497313332E+02
          0                 4           2             4    8     1      -0.2683869741E+00       4    8    1        -0.1465225941E+02      0.2690373788E+02
          0                 5           2             4    8     1      -0.1654148255E+00       4    8    1        -0.9030267798E+01      0.1659910990E+02
          0                 6           2             4    8     1      -0.1019522271E+00       4    8    1        -0.5565536440E+01      0.1024534074E+02
          0                 7           2             4    8     1      -0.6283921172E-01       4    8    1        -0.3430228935E+01      0.6325791518E+01
          0                 8           2             4    8     1      -0.3873280077E-01       4    8    1        -0.2114226589E+01      0.3906960328E+01
          0                 9           2             4    8     1      -0.2387501110E-01       4    8    1        -0.1303150419E+01      0.2413724190E+01
          0                10           2             4    8     1      -0.1471726028E-01       4    8    1        -0.8032568345E+00      0.1491594143E+01
                                                   Max.-Head-Change                         Max.-Flux-Residual
  Residual-Control   Outer-Iter.   Inner-Iter.     Column Row Layer    Maximum-Head-Change  Column Row Layer    Maximum-Flux-Residual          L2-NORM 
          0                11           2             4    8     1      -0.9072586166E-02       4    8    1        -0.4951460434E+00      0.9219740797E+00
          0                12           2             4    8     1      -0.5548122471E-02       4    8    1        -0.3027229548E+00      0.5686700687E+00
          0                13           2             4    7     1      -0.2871940123E-02       4    7    1        -0.1557603875E+00      0.3074908633E+00
          0                14           2             4    7     1      -0.1776789790E-02       4    7    1        -0.9668702473E-01      0.1845876090E+00
          0                15           2             4    7     1      -0.1097452492E-02       4    7    1        -0.5979401125E-01      0.1129597440E+00
          0                16           2             4    7     1      -0.6774541063E-03       4    7    1        -0.3692657905E-01      0.6934563169E-01
          0                17           2             4    7     1      -0.4181133833E-03       4    7    1        -0.2279317982E-01      0.4260088104E-01
          0                18           2             4    7     1      -0.2580444020E-03       4    7    1        -0.1406715254E-01      0.2618007605E-01
          0                19           2             4    7     1      -0.1592591459E-03       4    7    1        -0.8681593121E-02      0.1609358585E-01
          0                20           1             4    7     1      -0.9829482920E-04       4    7    1        -0.5358018745E-02      0.9895894126E-02

    ------------------------------------------------
       NWT REQUIRED           20 OUTER ITERATIONS 
       AND A TOTAL OF         39 INNER ITERATIONS.
    ------------------------------------------------

 NO OUTPUT CONTROL FOR STRESS PERIOD   32   TIME STEP   16
 
 SOLVING FOR HEAD 
                                                   Max.-Head-Change                         Max.-Flux-Residual
  Residual-Control   Outer-Iter.   Inner-Iter.     Column Row Layer    Maximum-Head-Change  Column Row Layer    Maximum-Flux-Residual          L2-NORM 
          0                 1           2             4    7     1       0.2123533160E+01       4    6    1         0.1108974420E+03      0.2675963318E+03
          0                 2           2             5    8     1      -0.8339520319E+00       5    8    1        -0.4615100041E+02      0.1000331798E+03
          0                 3           2             5    7     1      -0.4957000654E+00       5    6    1        -0.2732011709E+02      0.5682472278E+02
          0                 4           2             5    7     1      -0.2721269941E+00       5    7    1        -0.1493273185E+02      0.3045966745E+02
          0                 5           2             4    8     1      -0.1467544804E+00       4    8    1        -0.8022353124E+01      0.1482093487E+02
          0                 6           2             4    8     1      -0.9031248948E-01       4    8    1        -0.4936938337E+01      0.8645062408E+01
          0                 7           2             4    8     1      -0.5557418626E-01       4    8    1        -0.3038128349E+01      0.5243924018E+01
          0                 8           2             4    8     1      -0.3419453761E-01       4    8    1        -0.1869481250E+01      0.3201385345E+01
          0                 9           2             4    8     1      -0.2103759191E-01       4    8    1        -0.1150253939E+01      0.1956664717E+01
          0                10           2             4    8     1      -0.1294170143E-01       4    8    1        -0.7076555787E+00      0.1196369492E+01
                                                   Max.-Head-Change                         Max.-Flux-Residual
  Residual-Control   Outer-Iter.   Inner-Iter.     Column Row Layer    Maximum-Head-Change  Column Row Layer    Maximum-Flux-Residual          L2-NORM 
          0                11           2             4    8     1      -0.7960572727E-02       4    8    1        -0.4353177138E+00      0.7317191044E+00
          0                12           2             4    8     1      -0.4896172976E-02       4    8    1        -0.2677617538E+00      0.4476591353E+00
          0                13           2             4    8     1      -0.3011138190E-02       4    8    1        -0.1646836463E+00      0.2739488980E+00
          0                14           2             4    8     1      -0.1851689151E-02       4    8    1        -0.1012777680E+00      0.1676889742E+00
          0                15           2             4    8     1      -0.1138599073E-02       4    8    1        -0.6227897260E-01      0.1026704630E+00
          0                16           2             4    8     1      -0.7000687911E-03       4    8    1        -0.3829431491E-01      0.6287612483E-01
          0                17           2             4    8     1      -0.4304071337E-03       4    8    1        -0.2354477271E-01      0.3851399958E-01
          0                18           2             4    8     1      -0.2645992866E-03       4    8    1        -0.1447517181E-01      0.2359596550E-01
          0                19           2             4    8     1      -0.1626559183E-03       4    8    1        -0.8898638891E-02      0.1445896358E-01
          0                20           1             4    8     1      -0.9998261799E-04       4    8    1        -0.5470104048E-02      0.8861580665E-02

    ------------------------------------------------
       NWT REQUIRED           20 OUTER ITERATIONS 
       AND A TOTAL OF         39 INNER ITERATIONS.
    ------------------------------------------------

 NO OUTPUT CONTROL FOR STRESS PERIOD   32   TIME STEP   17
 
 SOLVING FOR HEAD 
                                                   Max.-Head-Change                         Max.-Flux-Residual
  Residual-Control   Outer-Iter.   Inner-Iter.     Column Row Layer    Maximum-Head-Change  Column Row Layer    Maximum-Flux-Residual          L2-NORM 
          0                 1           2             4    7     1       0.2116478043E+01       4    7    1         0.1105288830E+03      0.2663255034E+03
          0                 2           2             5    8     1      -0.8417415414E+00       5    8    1        -0.4659765329E+02      0.1037014464E+03
          0                 3           2             5    6     1      -0.4932431670E+00       5    6    1        -0.2728297781E+02      0.5660972025E+02
          0                 4           2             5    7     1      -0.3025081610E+00       5    6    1        -0.1657165699E+02      0.3434820352E+02
          0                 5           2             5    7     1      -0.1848144201E+00       5    7    1        -0.1017951440E+02      0.1883848779E+02
          0                 6           2             4    8     1      -0.9107608813E-01       4    8    1        -0.5000869719E+01      0.8587117550E+01
          0                 7           2             4    8     1      -0.5568807366E-01       4    8    1        -0.3062268029E+01      0.4818174663E+01
          0                 8           2             4    8     1      -0.3401969999E-01       4    8    1        -0.1872060542E+01      0.2878793550E+01
          0                 9           2             4    8     1      -0.2077246598E-01       4    8    1        -0.1143523526E+01      0.1738854091E+01
          0                10           2             4    8     1      -0.1267978705E-01       4    8    1        -0.6981937099E+00      0.1052055839E+01
                                                   Max.-Head-Change                         Max.-Flux-Residual
  Residual-Control   Outer-Iter.   Inner-Iter.     Column Row Layer    Maximum-Head-Change  Column Row Layer    Maximum-Flux-Residual          L2-NORM 
          0                11           2             4    8     1      -0.7738136309E-02       4    8    1        -0.4261673659E+00      0.6366979050E+00
          0                12           2             4    8     1      -0.4721472202E-02       4    8    1        -0.2600687444E+00      0.3853649786E+00
          0                13           2             4    8     1      -0.2880339219E-02       4    8    1        -0.1586771236E+00      0.2332662870E+00
          0                14           2             4    8     1      -0.1756872315E-02       4    8    1        -0.9679801457E-01      0.1412130774E+00
          0                15           2             4    8     1      -0.1071447508E-02       4    8    1        -0.5904042365E-01      0.8549522166E-01
          0                16           2             4    8     1      -0.6533393801E-03       4    8    1        -0.3600534727E-01      0.5176691970E-01
          0                17           2             4    8     1      -0.3983334303E-03       4    8    1        -0.2195442662E-01      0.3134767684E-01
          0                18           2             4    8     1      -0.2428271187E-03       4    8    1        -0.1338497175E-01      0.1898452486E-01
          0                19           2             4    8     1      -0.1480104902E-03       4    8    1        -0.8159350469E-02      0.1149831494E-01
          0                20           1             4    8     1      -0.9020589803E-04       4    8    1        -0.4973233398E-02      0.6964781460E-02

    ------------------------------------------------
       NWT REQUIRED           20 OUTER ITERATIONS 
       AND A TOTAL OF         39 INNER ITERATIONS.
    ------------------------------------------------

 NO OUTPUT CONTROL FOR STRESS PERIOD   32   TIME STEP   18
 
 SOLVING FOR HEAD 
                                                   Max.-Head-Change                         Max.-Flux-Residual
  Residual-Control   Outer-Iter.   Inner-Iter.     Column Row Layer    Maximum-Head-Change  Column Row Layer    Maximum-Flux-Residual          L2-NORM 
          0                 1           2             4    7     1       0.2108851882E+01       4    7    1         0.1101322482E+03      0.2653150728E+03
          0                 2           2             5    8     1      -0.8456339403E+00       5    8    1        -0.4687730220E+02      0.1005533201E+03
          0                 3           2             4    7     1      -0.4776093171E+00       4    7    1        -0.2576762265E+02      0.5699401283E+02
          0                 4           2             4    7     1      -0.2972490622E+00       4    7    1        -0.1609155853E+02      0.3270758594E+02
          0                 5           2             4    7     1      -0.1849279718E+00       4    7    1        -0.1001086178E+02      0.2022399862E+02
          0                 6           2             5    7     1      -0.1048305394E+00       5    7    1        -0.5726562200E+01      0.1186946420E+02
          0                 7           2             5    7     1      -0.6405840395E-01       5    7    1        -0.3526810705E+01      0.6746089849E+01
          0                 8           2             5    7     1      -0.3867379774E-01       5    7    1        -0.2153154704E+01      0.3632943450E+01
          0                 9           2             5    7     1      -0.2322115852E-01       5    7    1        -0.1298219513E+01      0.2157561122E+01
          0                10           2             4    8     1      -0.1305079476E-01       4    8    1        -0.7188366515E+00      0.1119953184E+01
                                                   Max.-Head-Change                         Max.-Flux-Residual
  Residual-Control   Outer-Iter.   Inner-Iter.     Column Row Layer    Maximum-Head-Change  Column Row Layer    Maximum-Flux-Residual          L2-NORM 
          0                11           2             4    8     1      -0.7960759374E-02       4    8    1        -0.4386219355E+00      0.6418881767E+00
          0                12           2             4    8     1      -0.4854562490E-02       4    8    1        -0.2675372278E+00      0.3853285665E+00
          0                13           2             4    8     1      -0.2959757481E-02       4    8    1        -0.1631403174E+00      0.2330688000E+00
          0                14           2             4    8     1      -0.1804226494E-02       4    8    1        -0.9946080686E-01      0.1411340963E+00
          0                15           2             4    8     1      -0.1099677127E-02       4    8    1        -0.6062801248E-01      0.8548035134E-01
          0                16           2             4    8     1      -0.6701693126E-03       4    8    1        -0.3695173926E-01      0.5177695261E-01
          0                17           2             4    8     1      -0.4083691563E-03       4    8    1        -0.2251864380E-01      0.3136458302E-01
          0                18           2             4    8     1      -0.2488130470E-03       4    8    1        -0.1372141835E-01      0.1900099783E-01
          0                19           2             4    8     1      -0.1515819257E-03       4    8    1        -0.8360030808E-02      0.1151190981E-01
          0                20           1             4    8     1      -0.9233741094E-04       4    8    1        -0.5092968978E-02      0.6975124485E-02

    ------------------------------------------------
       NWT REQUIRED           20 OUTER ITERATIONS 
       AND A TOTAL OF         39 INNER ITERATIONS.
    ------------------------------------------------

 NO OUTPUT CONTROL FOR STRESS PERIOD   32   TIME STEP   19
 
 SOLVING FOR HEAD 
                                                   Max.-Head-Change                         Max.-Flux-Residual
  Residual-Control   Outer-Iter.   Inner-Iter.     Column Row Layer    Maximum-Head-Change  Column Row Layer    Maximum-Flux-Residual          L2-NORM 
          0                 1           2             4    7     1       0.2110489402E+01       4    7    1         0.1102423290E+03      0.2644022424E+03
          0                 2           2             5    8     1      -0.8490564298E+00       5    8    1        -0.4712870304E+02      0.9597848353E+02
          0                 3           2             4    6     1      -0.4964936681E+00       4    6    1        -0.2714658262E+02      0.5850829730E+02
          0                 4           2             4    7     1      -0.2634050670E+00       4    7    1        -0.1422806061E+02      0.2993548281E+02
          0                 5           2             4    7     1      -0.1637555138E+00       4    7    1        -0.8873221841E+01      0.1802087454E+02
          0                 6           2             4    7     1      -0.1017737881E+00       4    7    1        -0.5514314589E+01      0.1112648237E+02
          0                 7           2             4    7     1      -0.6325495227E-01       4    7    1        -0.3427102725E+01      0.6872250874E+01
          0                 8           2             4    7     1      -0.3931564389E-01       4    7    1        -0.2130005926E+01      0.4246041508E+01
          0                 9           2             4    7     1      -0.2443672522E-01       4    7    1        -0.1323872910E+01      0.2624215734E+01
          0                10           2             4    7     1      -0.1518876785E-01       4    7    1        -0.8228450893E+00      0.1622304224E+01
                                                   Max.-Head-Change                         Max.-Flux-Residual
  Residual-Control   Outer-Iter.   Inner-Iter.     Column Row Layer    Maximum-Head-Change  Column Row Layer    Maximum-Flux-Residual          L2-NORM 
          0                11           2             4    7     1      -0.9440604024E-02       4    7    1        -0.5114360955E+00      0.1003162082E+01
          0                12           2             4    7     1      -0.5867742130E-02       4    7    1        -0.3178791096E+00      0.6204483440E+00
          0                13           2             4    7     1      -0.3646977003E-02       4    7    1        -0.1975723911E+00      0.3838190375E+00
          0                14           2             4    7     1      -0.2266642261E-02       4    7    1        -0.1227950853E+00      0.2374790452E+00
          0                15           2             4    7     1      -0.1408699780E-02       4    7    1        -0.7631736989E-01      0.1469583693E+00
          0                16           2             4    7     1      -0.8754620179E-03       4    7    1        -0.4742977616E-01      0.9095502229E-01
          0                17           2             4    7     1      -0.5440486749E-03       4    7    1        -0.2947555191E-01      0.5630100193E-01
          0                18           2             4    7     1      -0.3380790396E-03       4    7    1        -0.1831699485E-01      0.3485435039E-01
          0                19           2             4    7     1      -0.2100764999E-03       4    7    1        -0.1138220464E-01      0.2157964026E-01
          0                20           2             4    7     1      -0.1305312057E-03       4    7    1        -0.7072568533E-02      0.1336205105E-01
          0                21           1             4    7     1      -0.8110133134E-04       4    7    1        -0.4394459638E-02      0.8274458660E-02

    ------------------------------------------------
       NWT REQUIRED           21 OUTER ITERATIONS 
       AND A TOTAL OF         41 INNER ITERATIONS.
    ------------------------------------------------

 NO OUTPUT CONTROL FOR STRESS PERIOD   32   TIME STEP   20
 
 SOLVING FOR HEAD 
                                                   Max.-Head-Change                         Max.-Flux-Residual
  Residual-Control   Outer-Iter.   Inner-Iter.     Column Row Layer    Maximum-Head-Change  Column Row Layer    Maximum-Flux-Residual          L2-NORM 
          0                 1           2             4    7     1       0.2110723256E+01       4    7    1         0.1102783565E+03      0.2634178446E+03
          0                 2           2             5    8     1      -0.8518155557E+00       5    8    1        -0.4728476447E+02      0.9427678872E+02
          0                 3           2             5    8     1      -0.5158051911E+00       5    8    1        -0.2860780062E+02      0.5814854853E+02
          0                 4           2             4    6     1      -0.2969204442E+00       4    6    1        -0.1624702797E+02      0.3267620724E+02
          0                 5           2             4    8     1      -0.1521849662E+00       4    8    1        -0.8332677757E+01      0.1730726884E+02
          0                 6           2             4    8     1      -0.9352109308E-01       4    8    1        -0.5118669338E+01      0.1041765862E+02
          0                 7           2             4    7     1      -0.5774881118E-01       4    8    1        -0.3145618222E+01      0.6378753395E+01
          0                 8           2             4    7     1      -0.3576546945E-01       4    7    1        -0.1944054335E+01      0.3916306021E+01
          0                 9           2             4    7     1      -0.2213921004E-01       4    7    1        -0.1203879779E+01      0.2405812644E+01
          0                10           2             4    7     1      -0.1370012926E-01       4    7    1        -0.7451680569E+00      0.1478318074E+01
                                                   Max.-Head-Change                         Max.-Flux-Residual
  Residual-Control   Outer-Iter.   Inner-Iter.     Column Row Layer    Maximum-Head-Change  Column Row Layer    Maximum-Flux-Residual          L2-NORM 
          0                11           2             4    7     1      -0.8475944531E-02       4    7    1        -0.4611024314E+00      0.9086145748E+00
          0                12           2             4    7     1      -0.5242870815E-02       4    7    1        -0.2852625563E+00      0.5585890235E+00
          0                13           2             4    7     1      -0.3242475101E-02       4    7    1        -0.1764457761E+00      0.3434792439E+00
          0                14           2             4    7     1      -0.2005008441E-02       4    7    1        -0.1091201707E+00      0.2112505275E+00
          0                15           2             4    7     1      -0.1239629951E-02       4    7    1        -0.6747321652E-01      0.1299505138E+00
          0                16           2             4    7     1      -0.7663158218E-03       4    7    1        -0.4171521727E-01      0.7995304363E-01
          0                17           2             4    7     1      -0.4736598853E-03       4    7    1        -0.2578682302E-01      0.4919976700E-01
          0                18           2             4    7     1      -0.2927328463E-03       4    7    1        -0.1593839453E-01      0.3028006159E-01
          0                19           2             4    7     1      -0.1808943914E-03       4    7    1        -0.9850031984E-02      0.1863850677E-01
          0                20           1             4    7     1      -0.1117712574E-03       4    7    1        -0.6086670353E-02      0.1147417527E-01
          0                21           1             4    7     1      -0.6905402468E-04       4    7    1        -0.3760742293E-02      0.7064534072E-02

    ------------------------------------------------
       NWT REQUIRED           21 OUTER ITERATIONS 
       AND A TOTAL OF         40 INNER ITERATIONS.
    ------------------------------------------------

 NO OUTPUT CONTROL FOR STRESS PERIOD   32   TIME STEP   21
 
 SOLVING FOR HEAD 
                                                   Max.-Head-Change                         Max.-Flux-Residual
  Residual-Control   Outer-Iter.   Inner-Iter.     Column Row Layer    Maximum-Head-Change  Column Row Layer    Maximum-Flux-Residual          L2-NORM 
          0                 1           2             4    7     1       0.2101151127E+01       4    7    1         0.1097725204E+03      0.2624361469E+03
          0                 2           2             5    8     1      -0.8542638014E+00       5    8    1        -0.4741550067E+02      0.9420915928E+02
          0                 3           2             5    8     1      -0.5173412988E+00       5    8    1        -0.2869040243E+02      0.5811461681E+02
          0                 4           2             4    6     1      -0.2991194729E+00       4    6    1        -0.1636699295E+02      0.3445279106E+02
          0                 5           2             4    6     1      -0.1839407456E+00       4    6    1        -0.1006177075E+02      0.1974759689E+02
          0                 6           2             4    7     1      -0.9535752219E-01       4    8    1        -0.5176212686E+01      0.1071665775E+02
          0                 7           2             4    7     1      -0.5922015326E-01       4    7    1        -0.3212401782E+01      0.6362802950E+01
          0                 8           2             4    7     1      -0.3668029385E-01       4    7    1        -0.1993866146E+01      0.3875704602E+01
          0                 9           2             4    7     1      -0.2269179807E-01       4    7    1        -0.1234667372E+01      0.2370447632E+01
          0                10           2             4    7     1      -0.1402900154E-01       4    7    1        -0.7637155228E+00      0.1451215011E+01
                                                   Max.-Head-Change                         Max.-Flux-Residual
  Residual-Control   Outer-Iter.   Inner-Iter.     Column Row Layer    Maximum-Head-Change  Column Row Layer    Maximum-Flux-Residual          L2-NORM 
          0                11           2             4    7     1      -0.8669801645E-02       4    7    1        -0.4721250195E+00      0.8889368894E+00
          0                12           2             4    7     1      -0.5356258993E-02       4    7    1        -0.2917535375E+00      0.5447777915E+00
          0                13           2             4    7     1      -0.3308313581E-02       4    7    1        -0.1802392521E+00      0.3340144728E+00
          0                14           2             4    7     1      -0.2042950589E-02       4    7    1        -0.1113210834E+00      0.2048786643E+00
          0                15           2             4    7     1      -0.1261317951E-02       4    7    1        -0.6874052600E-01      0.1257191083E+00
          0                16           2             4    7     1      -0.7785999090E-03       4    7    1        -0.4243895877E-01      0.7717321733E-01
          0                17           2             4    7     1      -0.4805445802E-03       4    7    1        -0.2619632669E-01      0.4738935749E-01
          0                18           2             4    7     1      -0.2965434970E-03       4    7    1        -0.1616762734E-01      0.2910936518E-01
          0                19           2             4    7     1      -0.1829716557E-03       4    7    1        -0.9976728535E-02      0.1788594336E-01
          0                20           1             4    7     1      -0.1128820266E-03       4    7    1        -0.6155612136E-02      0.1099280122E-01
          0                21           1             4    7     1      -0.6963311571E-04       4    7    1        -0.3797522864E-02      0.6757922262E-02

    ------------------------------------------------
       NWT REQUIRED           21 OUTER ITERATIONS 
       AND A TOTAL OF         40 INNER ITERATIONS.
    ------------------------------------------------

 NO OUTPUT CONTROL FOR STRESS PERIOD   32   TIME STEP   22
 
 SOLVING FOR HEAD 
                                                   Max.-Head-Change                         Max.-Flux-Residual
  Residual-Control   Outer-Iter.   Inner-Iter.     Column Row Layer    Maximum-Head-Change  Column Row Layer    Maximum-Flux-Residual          L2-NORM 
          0                 1           2             4    7     1       0.2090614451E+01       4    7    1         0.1092099178E+03      0.2615732524E+03
          0                 2           2             5    8     1      -0.8565892950E+00       5    8    1        -0.4753962029E+02      0.9298393518E+02
          0                 3           2             5    8     1      -0.5188009764E+00       5    8    1        -0.2876857880E+02      0.5736888863E+02
          0                 4           2             5    8     1      -0.3144483586E+00       5    8    1        -0.1742516074E+02      0.3538874386E+02
          0                 5           2             4    6     1      -0.1692638303E+00       4    6    1        -0.9238183985E+01      0.1982981171E+02
          0                 6           2             4    6     1      -0.1043687219E+00       4    6    1        -0.5695212396E+01      0.1189942120E+02
          0                 7           2             4    6     1      -0.6436579836E-01       4    6    1        -0.3511703725E+01      0.7305822075E+01
          0                 8           2             4    6     1      -0.3970197892E-01       4    6    1        -0.2165728376E+01      0.4500862592E+01
          0                 9           2             4    7     1      -0.2372154503E-01       4    7    1        -0.1283005601E+01      0.2531487703E+01
          0                10           2             4    7     1      -0.1470106559E-01       4    7    1        -0.7989118479E+00      0.1503534647E+01
                                                   Max.-Head-Change                         Max.-Flux-Residual
  Residual-Control   Outer-Iter.   Inner-Iter.     Column Row Layer    Maximum-Head-Change  Column Row Layer    Maximum-Flux-Residual          L2-NORM 
          0                11           2             4    7     1      -0.9087726653E-02       4    7    1        -0.4948398051E+00      0.9151360007E+00
          0                12           2             4    7     1      -0.5611328980E-02       4    7    1        -0.3058205187E+00      0.5590918891E+00
          0                13           2             4    7     1      -0.3462720331E-02       4    7    1        -0.1888102619E+00      0.3417656850E+00
          0                14           2             4    7     1      -0.2136019540E-02       4    7    1        -0.1165055667E+00      0.2089485416E+00
          0                15           2             4    7     1      -0.1317250875E-02       4    7    1        -0.7186414795E-01      0.1277612426E+00
          0                16           2             4    7     1      -0.8121285922E-03       4    7    1        -0.4431562410E-01      0.7812825330E-01
          0                17           2             4    7     1      -0.5005910629E-03       4    7    1        -0.2732096809E-01      0.4778217495E-01
          0                18           2             4    7     1      -0.3084955297E-03       4    7    1        -0.1683984610E-01      0.2922609449E-01
          0                19           2             4    7     1      -0.1900755382E-03       4    7    1        -0.1037739083E-01      0.1787805922E-01
          0                20           1             4    7     1      -0.1170896743E-03       4    7    1        -0.6393669725E-02      0.1093735099E-01
          0                21           1             4    7     1      -0.7211558004E-04       4    7    1        -0.3938470364E-02      0.6691809964E-02

    ------------------------------------------------
       NWT REQUIRED           21 OUTER ITERATIONS 
       AND A TOTAL OF         40 INNER ITERATIONS.
    ------------------------------------------------

 NO OUTPUT CONTROL FOR STRESS PERIOD   32   TIME STEP   23
 
 SOLVING FOR HEAD 
                                                   Max.-Head-Change                         Max.-Flux-Residual
  Residual-Control   Outer-Iter.   Inner-Iter.     Column Row Layer    Maximum-Head-Change  Column Row Layer    Maximum-Flux-Residual          L2-NORM 
          0                 1           2             4    7     1       0.2080743836E+01       4    7    1         0.1086852373E+03      0.2608278228E+03
          0                 2           2             5    8     1      -0.8218851519E+00       5    8    1        -0.4556249951E+02      0.9083356590E+02
          0                 3           2             5    8     1      -0.4983876045E+00       5    8    1        -0.2760648059E+02      0.5606957684E+02
          0                 4           2             5    8     1      -0.3024352908E+00       5    8    1        -0.1674159036E+02      0.3460099578E+02
          0                 5           2             4    8     1      -0.1572128692E+00       5    8    1        -0.8565101416E+01      0.2065737570E+02
          0                 6           2             4    8     1      -0.9665366731E-01       4    8    1        -0.5292796182E+01      0.1184550944E+02
          0                 7           2             4    7     1      -0.6065025755E-01       4    7    1        -0.3255759714E+01      0.7219295188E+01
          0                 8           2             4    7     1      -0.3805096747E-01       4    7    1        -0.2044411706E+01      0.4442586918E+01
          0                 9           2             4    7     1      -0.2385002704E-01       4    7    1        -0.1282483173E+01      0.2737805649E+01
          0                10           2             4    7     1      -0.1493584242E-01       4    7    1        -0.8037622554E+00      0.1687721035E+01
                                                   Max.-Head-Change                         Max.-Flux-Residual
  Residual-Control   Outer-Iter.   Inner-Iter.     Column Row Layer    Maximum-Head-Change  Column Row Layer    Maximum-Flux-Residual          L2-NORM 
          0                11           2             4    7     1      -0.9345775558E-02       4    7    1        -0.5032965827E+00      0.1040568716E+01
          0                12           2             4    7     1      -0.5843474122E-02       4    7    1        -0.3148964961E+00      0.6416621253E+00
          0                13           2             4    7     1      -0.3651072091E-02       4    7    1        -0.1968721776E+00      0.3957350881E+00
          0                14           2             4    7     1      -0.2279736033E-02       4    7    1        -0.1229976123E+00      0.2440963474E+00
          0                15           2             4    7     1      -0.1422601044E-02       4    7    1        -0.7679377293E-01      0.1505816858E+00
          0                16           2             4    7     1      -0.8872253774E-03       4    7    1        -0.4791722617E-01      0.9290364770E-01
          0                17           2             4    7     1      -0.5530360392E-03       4    7    1        -0.2988211818E-01      0.5732431987E-01
          0                18           2             4    7     1      -0.3445534363E-03       4    7    1        -0.1862521775E-01      0.3537420329E-01
          0                19           2             4    7     1      -0.2145641841E-03       4    7    1        -0.1160316598E-01      0.2183093865E-01
          0                20           2             4    7     1      -0.1335574423E-03       4    7    1        -0.7225210684E-02      0.1347388373E-01
          0                21           1             4    7     1      -0.8309998024E-04       4    7    1        -0.4497135890E-02      0.8316579676E-02

    ------------------------------------------------
       NWT REQUIRED           21 OUTER ITERATIONS 
       AND A TOTAL OF         41 INNER ITERATIONS.
    ------------------------------------------------

 NO OUTPUT CONTROL FOR STRESS PERIOD   32   TIME STEP   24
 
 SOLVING FOR HEAD 
                                                   Max.-Head-Change                         Max.-Flux-Residual
  Residual-Control   Outer-Iter.   Inner-Iter.     Column Row Layer    Maximum-Head-Change  Column Row Layer    Maximum-Flux-Residual          L2-NORM 
          0                 1           2             4    7     1       0.2073140724E+01       4    7    1         0.1082877712E+03      0.2600727713E+03
          0                 2           2             5    8     1      -0.7827239753E+00       5    8    1        -0.4333327477E+02      0.8978273968E+02
          0                 3           2             5    8     1      -0.4753326317E+00       5    8    1        -0.2629502326E+02      0.5544747357E+02
          0                 4           2             5    8     1      -0.2888559472E+00       5    8    1        -0.1596949669E+02      0.3423091154E+02
          0                 5           2             5    8     1      -0.1756513550E+00       5    8    1        -0.9705003144E+01      0.2114733578E+02
          0                 6           2             4    8     1      -0.9777307864E-01       4    8    1        -0.5319515617E+01      0.1250571766E+02
          0                 7           2             4    7     1      -0.6096600262E-01       4    8    1        -0.3290866353E+01      0.7309785602E+01
          0                 8           2             4    7     1      -0.3824800397E-01       4    7    1        -0.2055041970E+01      0.4469551247E+01
          0                 9           2             4    7     1      -0.2397323474E-01       4    7    1        -0.1289121098E+01      0.2751926996E+01
          0                10           2             4    7     1      -0.1501287643E-01       4    7    1        -0.8079135537E+00      0.1696147000E+01
                                                   Max.-Head-Change                         Max.-Flux-Residual
  Residual-Control   Outer-Iter.   Inner-Iter.     Column Row Layer    Maximum-Head-Change  Column Row Layer    Maximum-Flux-Residual          L2-NORM 
          0                11           2             4    7     1      -0.9393899495E-02       4    7    1        -0.5058920140E+00      0.1045676430E+01
          0                12           2             4    7     1      -0.5873505999E-02       4    7    1        -0.3165177172E+00      0.6447605375E+00
          0                13           2             4    7     1      -0.3669793498E-02       4    7    1        -0.1978837812E+00      0.3976146282E+00
          0                14           2             4    7     1      -0.2291394728E-02       4    7    1        -0.1236281528E+00      0.2452370614E+00
          0                15           2             4    7     1      -0.1429854521E-02       4    7    1        -0.7718639388E-01      0.1512745324E+00
          0                16           2             4    7     1      -0.8917341454E-03       4    7    1        -0.4816146895E-01      0.9332483519E-01
          0                17           2             4    7     1      -0.5558364001E-03       4    7    1        -0.3003392400E-01      0.5758058965E-01
          0                18           2             4    7     1      -0.3462914032E-03       4    7    1        -0.1871949403E-01      0.3553026371E-01
          0                19           2             4    7     1      -0.2156420510E-03       4    7    1        -0.1166167065E-01      0.2192605289E-01
          0                20           2             4    7     1      -0.1342254898E-03       4    7    1        -0.7261491510E-02      0.1353189837E-01
          0                21           1             4    7     1      -0.8351377903E-04       4    7    1        -0.4519620484E-02      0.8351991687E-02

    ------------------------------------------------
       NWT REQUIRED           21 OUTER ITERATIONS 
       AND A TOTAL OF         41 INNER ITERATIONS.
    ------------------------------------------------

 NO OUTPUT CONTROL FOR STRESS PERIOD   32   TIME STEP   25
 
 SOLVING FOR HEAD 
                                                   Max.-Head-Change                         Max.-Flux-Residual
  Residual-Control   Outer-Iter.   Inner-Iter.     Column Row Layer    Maximum-Head-Change  Column Row Layer    Maximum-Flux-Residual          L2-NORM 
          0                 1           2             4    7     1       0.2066326671E+01       4    7    1         0.1079334491E+03      0.2593412045E+03
          0                 2           2             5    8     1      -0.7444027636E+00       5    8    1        -0.4109391237E+02      0.9079830529E+02
          0                 3           2             5    8     1      -0.4524251312E+00       5    8    1        -0.2501566225E+02      0.5450177253E+02
          0                 4           2             5    8     1      -0.2750839440E+00       5    8    1        -0.1520071260E+02      0.3365475489E+02
          0                 5           2             5    8     1      -0.1673674599E+00       5    8    1        -0.9242800133E+01      0.2079608317E+02
          0                 6           2             5    8     1      -0.1018957445E+00       5    8    1        -0.5623823009E+01      0.1285371306E+02
          0                 7           2             5    8     1      -0.6207441244E-01       5    8    1        -0.3424036655E+01      0.7946475778E+01
          0                 8           2             4    7     1      -0.3838351909E-01       4    7    1        -0.2062617550E+01      0.4641071825E+01
          0                 9           2             4    7     1      -0.2405677440E-01       4    7    1        -0.1293667954E+01      0.2773383597E+01
          0                10           2             4    7     1      -0.1506498418E-01       4    7    1        -0.8107250758E+00      0.1702265493E+01
                                                   Max.-Head-Change                         Max.-Flux-Residual
  Residual-Control   Outer-Iter.   Inner-Iter.     Column Row Layer    Maximum-Head-Change  Column Row Layer    Maximum-Flux-Residual          L2-NORM 
          0                11           2             4    7     1      -0.9426488710E-02       4    7    1        -0.5076473878E+00      0.1048989155E+01
          0                12           2             4    7     1      -0.5893875952E-02       4    7    1        -0.3176157550E+00      0.6468151662E+00
          0                13           2             4    7     1      -0.3682505148E-02       4    7    1        -0.1985700419E+00      0.3989005782E+00
          0                14           2             4    7     1      -0.2299312751E-02       4    7    1        -0.1240563265E+00      0.2460391029E+00
          0                15           2             4    7     1      -0.1434777927E-02       4    7    1        -0.7745304731E-01      0.1517735352E+00
          0                16           2             4    7     1      -0.8947906001E-03       4    7    1        -0.4832724148E-01      0.9363491425E-01
          0                17           2             4    7     1      -0.5577311435E-03       4    7    1        -0.3013681766E-01      0.5777314444E-01
          0                18           2             4    7     1      -0.3474645069E-03       4    7    1        -0.1878326935E-01      0.3564978578E-01
          0                19           2             4    7     1      -0.2163675604E-03       4    7    1        -0.1170115068E-01      0.2200021658E-01
          0                20           2             4    7     1      -0.1346737500E-03       4    7    1        -0.7285904984E-02      0.1357790264E-01
          0                21           1             4    7     1      -0.8379050612E-04       4    7    1        -0.4534702803E-02      0.8380519905E-02

    ------------------------------------------------
       NWT REQUIRED           21 OUTER ITERATIONS 
       AND A TOTAL OF         41 INNER ITERATIONS.
    ------------------------------------------------

 NO OUTPUT CONTROL FOR STRESS PERIOD   32   TIME STEP   26
 
 SOLVING FOR HEAD 
                                                   Max.-Head-Change                         Max.-Flux-Residual
  Residual-Control   Outer-Iter.   Inner-Iter.     Column Row Layer    Maximum-Head-Change  Column Row Layer    Maximum-Flux-Residual          L2-NORM 
          0                 1           2             4    7     1       0.2059617061E+01       4    7    1         0.1075834231E+03      0.2586532075E+03
          0                 2           2             4    8     1      -0.8225386526E+00       4    8    1        -0.4487373754E+02      0.9251005416E+02
          0                 3           2             5    8     1      -0.4295833626E+00       5    8    1        -0.2374654843E+02      0.5345468348E+02
          0                 4           2             5    8     1      -0.2612739049E+00       5    8    1        -0.1443368313E+02      0.3301263128E+02
          0                 5           2             5    8     1      -0.1590148556E+00       5    8    1        -0.8779052306E+01      0.2040215592E+02
          0                 6           2             5    7     1      -0.9801979106E-01       5    8    1        -0.5343333438E+01      0.1261183750E+02
          0                 7           2             4    7     1      -0.6133251500E-01       5    7    1        -0.3300302563E+01      0.7797842690E+01
          0                 8           2             4    7     1      -0.3843709721E-01       4    7    1        -0.2067082408E+01      0.4822323462E+01
          0                 9           2             4    7     1      -0.2407795101E-01       4    7    1        -0.1295362782E+01      0.2982748269E+01
          0                10           2             4    7     1      -0.1507663541E-01       4    7    1        -0.8113998077E+00      0.1845221802E+01
                                                   Max.-Head-Change                         Max.-Flux-Residual
  Residual-Control   Outer-Iter.   Inner-Iter.     Column Row Layer    Maximum-Head-Change  Column Row Layer    Maximum-Flux-Residual          L2-NORM 
          0                11           2             4    7     1      -0.9436523016E-02       4    7    1        -0.5080366600E+00      0.1141684663E+01
          0                12           2             4    7     1      -0.5904033264E-02       4    7    1        -0.3179644397E+00      0.7064863986E+00
          0                13           2             4    7     1      -0.3692505926E-02       4    7    1        -0.1989261770E+00      0.4372364958E+00
          0                14           2             4    7     1      -0.2308529533E-02       4    7    1        -0.1244060714E+00      0.2706321030E+00
          0                15           2             4    7     1      -0.1442771412E-02       4    7    1        -0.7777386209E-01      0.1675283325E+00
          0                16           2             4    7     1      -0.9013912185E-03       4    7    1        -0.4860424675E-01      0.1037144724E+00
          0                17           2             4    7     1      -0.5629741688E-03       4    7    1        -0.3036470397E-01      0.6421389650E-01
          0                18           2             4    7     1      -0.3515025031E-03       4    7    1        -0.1896373156E-01      0.3976069528E-01
          0                19           2             4    7     1      -0.2194009237E-03       4    7    1        -0.1183978725E-01      0.2462131204E-01
          0                20           2             4    7     1      -0.1369063629E-03       4    7    1        -0.7389832539E-02      0.1524747495E-01
          0                21           1             4    7     1      -0.8540609467E-04       4    7    1        -0.4611061916E-02      0.9443035971E-02

    ------------------------------------------------
       NWT REQUIRED           21 OUTER ITERATIONS 
       AND A TOTAL OF         41 INNER ITERATIONS.
    ------------------------------------------------

 NO OUTPUT CONTROL FOR STRESS PERIOD   32   TIME STEP   27
 
 SOLVING FOR HEAD 
                                                   Max.-Head-Change                         Max.-Flux-Residual
  Residual-Control   Outer-Iter.   Inner-Iter.     Column Row Layer    Maximum-Head-Change  Column Row Layer    Maximum-Flux-Residual          L2-NORM 
          0                 1           2             4    7     1       0.2053108955E+01       4    7    1         0.1072424592E+03      0.2579803897E+03
          0                 2           2             4    8     1      -0.8461641144E+00       4    8    1        -0.4614672981E+02      0.9483954129E+02
          0                 3           2             5    8     1      -0.4153629516E+00       5    8    1        -0.2294333547E+02      0.5243319860E+02
          0                 4           2             5    7     1      -0.2548298904E+00       5    8    1        -0.1395692634E+02      0.3236951735E+02
          0                 5           2             5    7     1      -0.1579642058E+00       5    7    1        -0.8579288114E+01      0.1999770155E+02
          0                 6           2             5    7     1      -0.9789410140E-01       5    7    1        -0.5317903247E+01      0.1235763030E+02
          0                 7           2             5    7     1      -0.6065342358E-01       5    7    1        -0.3295493971E+01      0.7638172737E+01
          0                 8           2             5    7     1      -0.3757210832E-01       5    7    1        -0.2041751315E+01      0.4722100549E+01
          0                 9           2             5    7     1      -0.2327002568E-01       5    7    1        -0.1264729797E+01      0.2919882210E+01
          0                10           2             5    7     1      -0.1440980100E-01       5    7    1        -0.7832758301E+00      0.1805814864E+01
                                                   Max.-Head-Change                         Max.-Flux-Residual
  Residual-Control   Outer-Iter.   Inner-Iter.     Column Row Layer    Maximum-Head-Change  Column Row Layer    Maximum-Flux-Residual          L2-NORM 
          0                11           2             5    7     1      -0.8921891468E-02       5    7    1        -0.4850231186E+00      0.1116999167E+01
          0                12           2             4    7     1      -0.5546713120E-02       5    7    1        -0.3002954921E+00      0.6910327239E+00
          0                13           2             4    7     1      -0.3476274689E-02       4    7    1        -0.1869293029E+00      0.4275681464E+00
          0                14           2             4    7     1      -0.2177573788E-02       4    7    1        -0.1171457098E+00      0.2645868465E+00
          0                15           2             4    7     1      -0.1363399202E-02       4    7    1        -0.7337649349E-01      0.1637506027E+00
          0                16           2             4    7     1      -0.8532471664E-03       4    7    1        -0.4593883363E-01      0.1013550093E+00
          0                17           2             4    7     1      -0.5337501857E-03       4    7    1        -0.2874786908E-01      0.6274099376E-01
          0                18           2             4    7     1      -0.3337503516E-03       4    7    1        -0.1798223539E-01      0.3884167302E-01
          0                19           2             4    7     1      -0.2086097273E-03       4    7    1        -0.1124354111E-01      0.2404814492E-01
          0                20           2             4    7     1      -0.1303420803E-03       4    7    1        -0.7027365325E-02      0.1489015963E-01
          0                21           1             4    7     1      -0.8141036467E-04       4    7    1        -0.4390561119E-02      0.9220372681E-02

    ------------------------------------------------
       NWT REQUIRED           21 OUTER ITERATIONS 
       AND A TOTAL OF         41 INNER ITERATIONS.
    ------------------------------------------------

 NO OUTPUT CONTROL FOR STRESS PERIOD   32   TIME STEP   28
 
 SOLVING FOR HEAD 
                                                   Max.-Head-Change                         Max.-Flux-Residual
  Residual-Control   Outer-Iter.   Inner-Iter.     Column Row Layer    Maximum-Head-Change  Column Row Layer    Maximum-Flux-Residual          L2-NORM 
          0                 1           2             4    7     1       0.2046897275E+01       4    7    1         0.1069154549E+03      0.2573013340E+03
          0                 2           2             4    8     1      -0.8492927313E+00       4    8    1        -0.4625628022E+02      0.9734118031E+02
          0                 3           2             5    8     1      -0.4177706495E+00       5    8    1        -0.2305945761E+02      0.5248187312E+02
          0                 4           2             5    7     1      -0.2556693413E+00       5    8    1        -0.1403899415E+02      0.3195536781E+02
          0                 5           2             5    7     1      -0.1582825033E+00       5    7    1        -0.8606372968E+01      0.1972859328E+02
          0                 6           2             5    7     1      -0.9797438997E-01       5    7    1        -0.5327936291E+01      0.1218363447E+02
          0                 7           2             5    7     1      -0.6063537529E-01       5    7    1        -0.3297800853E+01      0.7526157093E+01
          0                 8           2             5    7     1      -0.3752158961E-01       5    7    1        -0.2040913936E+01      0.4650257365E+01
          0                 9           2             5    7     1      -0.2321588484E-01       5    7    1        -0.1262895764E+01      0.2873956268E+01
          0                10           2             5    7     1      -0.1436298503E-01       5    7    1        -0.7813758186E+00      0.1776542096E+01
                                                   Max.-Head-Change                         Max.-Flux-Residual
  Residual-Control   Outer-Iter.   Inner-Iter.     Column Row Layer    Maximum-Head-Change  Column Row Layer    Maximum-Flux-Residual          L2-NORM 
          0                11           2             5    7     1      -0.8885168624E-02       5    7    1        -0.4834021642E+00      0.1098389207E+01
          0                12           2             5    7     1      -0.5496087793E-02       5    7    1        -0.2990331590E+00      0.6792288219E+00
          0                13           2             5    7     1      -0.3399489507E-02       5    7    1        -0.1849684685E+00      0.4200966038E+00
          0                14           2             5    7     1      -0.2102569652E-02       5    7    1        -0.1144059540E+00      0.2598663059E+00
          0                15           2             5    7     1      -0.1300372852E-02       5    7    1        -0.7075818176E-01      0.1607731099E+00
          0                16           2             4    7     1      -0.8071530370E-03       5    7    1        -0.4376086947E-01      0.9947976334E-01
          0                17           2             4    7     1      -0.5057799942E-03       4    7    1        -0.2719981894E-01      0.6156155060E-01
          0                18           2             4    7     1      -0.3167679765E-03       4    7    1        -0.1704282573E-01      0.3810076786E-01
          0                19           2             4    7     1      -0.1982927966E-03       4    7    1        -0.1067314341E-01      0.2358323957E-01
          0                20           2             4    7     1      -0.1240709250E-03       4    7    1        -0.6680828664E-02      0.1459873458E-01
          0                21           1             4    7     1      -0.7759632378E-04       4    7    1        -0.4179909338E-02      0.9037861607E-02

    ------------------------------------------------
       NWT REQUIRED           21 OUTER ITERATIONS 
       AND A TOTAL OF         41 INNER ITERATIONS.
    ------------------------------------------------

 NO OUTPUT CONTROL FOR STRESS PERIOD   32   TIME STEP   29
 
 SOLVING FOR HEAD 
                                                   Max.-Head-Change                         Max.-Flux-Residual
  Residual-Control   Outer-Iter.   Inner-Iter.     Column Row Layer    Maximum-Head-Change  Column Row Layer    Maximum-Flux-Residual          L2-NORM 
          0                 1           2             4    7     1       0.2040941504E+01       4    7    1         0.1066018989E+03      0.2566660185E+03
          0                 2           2             4    8     1      -0.8513476920E+00       4    8    1        -0.4636476219E+02      0.9861316781E+02
          0                 3           2             4    8     1      -0.4442091301E+00       4    8    1        -0.2417681500E+02      0.5489264594E+02
          0                 4           2             5    8     1      -0.2555129504E+00       5    8    1        -0.1414788974E+02      0.3104944602E+02
          0                 5           2             5    6     1      -0.1561285772E+00       5    6    1        -0.8587756323E+01      0.1915086219E+02
          0                 6           2             4    6     1      -0.9617965923E-01       4    6    1        -0.5248554987E+01      0.1181628020E+02
          0                 7           2             4    6     1      -0.5931155245E-01       4    6    1        -0.3236119687E+01      0.7293167363E+01
          0                 8           2             4    6     1      -0.3658184316E-01       4    6    1        -0.1995635972E+01      0.4502816177E+01
          0                 9           2             4    6     1      -0.2256630659E-01       4    6    1        -0.1230858868E+01      0.2780835301E+01
          0                10           2             4    6     1      -0.1392266467E-01       4    6    1        -0.7592830616E+00      0.1717830818E+01
                                                   Max.-Head-Change                         Max.-Flux-Residual
  Residual-Control   Outer-Iter.   Inner-Iter.     Column Row Layer    Maximum-Head-Change  Column Row Layer    Maximum-Flux-Residual          L2-NORM 
          0                11           2             5    7     1      -0.8607398285E-02       4    6    1        -0.4684529949E+00      0.1061429748E+01
          0                12           2             5    7     1      -0.5325656628E-02       5    7    1        -0.2896939017E+00      0.6559943602E+00
          0                13           2             5    7     1      -0.3294760746E-02       5    7    1        -0.1792373329E+00      0.4055082669E+00
          0                14           2             5    7     1      -0.2038124887E-02       5    7    1        -0.1108837241E+00      0.2507167459E+00
          0                15           2             5    7     1      -0.1260665931E-02       5    7    1        -0.6859050569E-01      0.1550403454E+00
          0                16           2             5    7     1      -0.7797172323E-03       5    7    1        -0.4242512608E-01      0.9589104122E-01
          0                17           2             5    7     1      -0.4822222152E-03       5    7    1        -0.2623920875E-01      0.5931681710E-01
          0                18           2             4    7     1      -0.2988197523E-03       5    7    1        -0.1622750698E-01      0.3669772137E-01
          0                19           2             4    7     1      -0.1871775100E-03       4    7    1        -0.1006907410E-01      0.2270686245E-01
          0                20           2             4    7     1      -0.1171881823E-03       4    7    1        -0.6306741412E-02      0.1405165827E-01
          0                21           1             4    7     1      -0.7333492580E-04       4    7    1        -0.3948275708E-02      0.8696538247E-02

    ------------------------------------------------
       NWT REQUIRED           21 OUTER ITERATIONS 
       AND A TOTAL OF         41 INNER ITERATIONS.
    ------------------------------------------------

 NO OUTPUT CONTROL FOR STRESS PERIOD   32   TIME STEP   30



 STREAM LISTING     PERIOD     32   STEP       30

 LAYER ROW COL. STREAM  RCH.  FLOW INTO     FLOW TO   FLOW OUT OF   OVRLND.     DIRECT     STREAM       STREAM     STREAM     STREAM   STREAMBED  STREAMBED
                SEG.NO.  NO.  STRM. RCH.    AQUIFER    STRM. RCH.    RUNOFF     PRECIP       ET          HEAD       DEPTH      WIDTH   CONDCTNC.   GRADIENT

   1    1    1     1     1    5.6248E+01  3.5874E-01   5.5890E+01  0.000E+00  0.000E+00  0.000E+00  1.09453E+03  1.479E+00  1.780E+01  8.009E-02  1.493E+00
   1    2    2     1     2    5.5890E+01  5.5549E-01   5.5334E+01  0.000E+00  0.000E+00  0.000E+00  1.08953E+03  1.473E+00  1.774E+01  1.242E-01  1.491E+00
   1    3    3     1     3    5.5334E+01  4.7367E-01   5.4860E+01  0.000E+00  0.000E+00  0.000E+00  1.08389E+03  1.467E+00  1.767E+01  1.060E-01  1.489E+00
   1    3    4     1     4    5.4860E+01  4.3612E-01   5.4424E+01  0.000E+00  0.000E+00  0.000E+00  1.07887E+03  1.461E+00  1.762E+01  9.777E-02  1.487E+00
   1    4    5     2     1    5.2424E+01  3.8056E-01   5.2044E+01  0.000E+00  0.000E+00  0.000E+00  1.07381E+03  1.879E+00  1.200E+01  7.800E-02  1.626E+00
   1    5    6     2     2    5.2044E+01  2.9230E-01   5.1751E+01  0.000E+00  0.000E+00  0.000E+00  1.06838E+03  1.872E+00  1.200E+01  6.000E-02  1.624E+00
   1    6    6     2     3    5.1751E+01  2.9192E-01   5.1459E+01  0.000E+00  0.000E+00  0.000E+00  1.06366E+03  1.865E+00  1.200E+01  6.000E-02  1.622E+00
   1    7    6     2     4    5.1459E+01  2.9154E-01   5.1168E+01  0.000E+00  0.000E+00  0.000E+00  1.05893E+03  1.859E+00  1.200E+01  6.000E-02  1.620E+00
   1    8    6     2     5    5.1168E+01  2.9116E-01   5.0877E+01  0.000E+00  0.000E+00  0.000E+00  1.05421E+03  1.853E+00  1.200E+01  6.000E-02  1.618E+00
   1    3    5     3     1    2.0000E+00  2.8252E-01   1.7175E+00  0.000E+00  0.000E+00  0.000E+00  1.07555E+03  1.909E+00  9.636E+00  7.227E-02  1.955E+00
   1    3    6     3     2    1.7175E+00  2.4905E-01   1.4684E+00  0.000E+00  0.000E+00  0.000E+00  1.07264E+03  1.727E+00  8.909E+00  6.682E-02  1.864E+00
   1    3    7     3     3    1.4684E+00  1.9718E-01   1.2712E+00  0.000E+00  0.000E+00  0.000E+00  1.06987E+03  1.555E+00  8.218E+00  5.547E-02  1.777E+00
   1    4    8     3     4    1.2712E+00  2.2567E-01   1.0456E+00  0.000E+00  0.000E+00  0.000E+00  1.06682E+03  1.364E+00  7.455E+00  6.709E-02  1.682E+00
   1    5    8     3     5    1.0456E+00  1.5790E-01   8.8768E-01  0.000E+00  0.000E+00  0.000E+00  1.06362E+03  1.164E+00  6.655E+00  4.991E-02  1.582E+00
   1    6    8     3     6    8.8768E-01  5.5980E-02   8.3170E-01  0.000E+00  0.000E+00  0.000E+00  1.06158E+03  1.036E+00  6.145E+00  1.844E-02  1.518E+00
   1    5   10     4     1    1.0000E+01  9.0919E-02   9.9091E+00  0.000E+00  0.000E+00  0.000E+00  1.07836E+03  6.368E-01  1.000E+01  2.500E-02  1.212E+00
   1    5    9     4     2    9.9091E+00  1.8158E-01   9.7275E+00  0.000E+00  0.000E+00  0.000E+00  1.07154E+03  6.315E-01  1.000E+01  5.000E-02  1.211E+00
   1    6    8     4     3    9.7275E+00  1.2689E-01   9.6006E+00  0.000E+00  0.000E+00  0.000E+00  1.06381E+03  6.256E-01  1.000E+01  3.500E-02  1.209E+00
   1    6    8     5     1    1.0432E+01  2.2686E-01   1.0205E+01  0.000E+00  0.000E+00  0.000E+00  1.05868E+03  6.790E-01  1.542E+01  6.166E-02  1.226E+00
   1    7    7     5     2    1.0205E+01  2.7894E-01   9.9265E+00  0.000E+00  0.000E+00  0.000E+00  1.05417E+03  6.732E-01  1.519E+01  7.594E-02  1.224E+00
   1    8    7     5     3    9.9265E+00  1.9221E-01   9.7343E+00  0.000E+00  0.000E+00  0.000E+00  1.04992E+03  6.676E-01  1.497E+01  5.241E-02  1.223E+00
   1    8    6     5     4    9.7343E+00  1.3577E-01   9.5985E+00  0.000E+00  0.000E+00  0.000E+00  1.04691E+03  6.637E-01  1.482E+01  3.706E-02  1.221E+00
   1    9    6     6     1    9.5985E+00  2.2097E-01   9.3776E+00  0.000E+00  0.000E+00  0.000E+00  1.04341E+03  6.828E-01  1.200E+01  6.000E-02  1.228E+00
   1   10    7     6     2    9.3776E+00  2.2039E-01   9.1572E+00  0.000E+00  0.000E+00  0.000E+00  1.03885E+03  6.732E-01  1.200E+01  6.000E-02  1.224E+00
   1   11    7     6     3    9.1572E+00  2.1981E-01   8.9374E+00  0.000E+00  0.000E+00  0.000E+00  1.03430E+03  6.636E-01  1.200E+01  6.000E-02  1.221E+00
   1   12    7     6     4    8.9374E+00  2.1923E-01   8.7181E+00  0.000E+00  0.000E+00  0.000E+00  1.02974E+03  6.539E-01  1.200E+01  6.000E-02  1.218E+00
   1   13    7     6     5    8.7181E+00 -5.2918E-02   8.7710E+00  0.000E+00  0.000E+00  0.000E+00  1.02656E+03  6.502E-01  1.200E+01  2.400E-01 -7.350E-02
   1   14    9     7     1    1.5000E+02  1.3658E+00   1.4863E+02  0.000E+00  0.000E+00  0.000E+00  1.03987E+03  2.288E+00  5.529E+01  5.593E-01  8.140E-01
   1   13    8     7     2    1.4863E+02  1.9323E+00   1.4670E+02  0.000E+00  0.000E+00  0.000E+00  1.03478E+03  2.279E+00  5.525E+01  6.148E-01  1.048E+00
   1   13    7     7     3    1.4670E+02  1.6244E+00   1.4508E+02  0.000E+00  0.000E+00  0.000E+00  1.02969E+03  2.269E+00  5.521E+01  5.584E-01  9.697E-01
   1   13    6     8     1    1.5385E+02  9.6894E-01   1.5288E+02  0.000E+00  0.000E+00  0.000E+00  1.02472E+03  2.840E+00  4.119E+01  4.197E-01  7.696E-01
   1   13    5     8     2    1.5288E+02  2.2831E-01   1.5265E+02  0.000E+00  0.000E+00  0.000E+00  1.01846E+03  2.836E+00  4.112E+01  4.191E-01  1.816E-01
   1   13    4     8     3    1.5265E+02 -2.2473E+00   1.5490E+02  0.000E+00  0.000E+00  0.000E+00  1.01222E+03  2.843E+00  4.123E+01  4.201E+00 -1.783E-01
   1   13    3     8     4    1.5490E+02 -3.5777E+00   1.5848E+02  0.000E+00  0.000E+00  0.000E+00  1.00599E+03  2.863E+00  4.152E+01  4.231E+00 -2.819E-01
   1   13    2     8     5    1.5848E+02 -2.6253E+00   1.6110E+02  0.000E+00  0.000E+00  0.000E+00  9.99759E+02  2.884E+00  4.182E+01  4.262E+00 -2.053E-01
   1   13    1     8     6    1.6110E+02 -2.0722E+00   1.6317E+02  0.000E+00  0.000E+00  0.000E+00  9.94775E+02  2.900E+00  4.205E+01  2.571E+00 -2.686E-01
   1    8    6     9     1    5.0877E+01  0.0000E+00   5.0877E+01  0.000E+00  0.000E+00  0.000E+00  1.08476E+03  6.014E+00  4.000E+00  0.000E+00  3.005E+00
   1    8    5     9     2    5.0877E+01  0.0000E+00   5.0877E+01  0.000E+00  0.000E+00  0.000E+00  1.08426E+03  6.014E+00  4.000E+00  0.000E+00  3.005E+00





UNSATURATED ZONE PACKAGE VOLUMETRIC BUDGET FOR  TIME STEP    30 STRESS PERIOD   32
  ------------------------------------------------------------------------------



     CUMULATIVE VOLUMES      L**3       RATES FOR THIS TIME STEP      L**3/T
     ------------------                 ------------------------

           IN:                                      IN:
           ---                                      ---
        INFILTRATION =  8492063804.0517          INFILTRATION =         651.7253

          OUT:                                     OUT:
          ----                                     ----
              UZF ET =  1115759327.6609                UZF ET =          60.8175
        UZF RECHARGE =  6318314352.0700          UZF RECHARGE =         642.3852

            IN - OUT =  1057990124.3208              IN - OUT =         -51.4774

          STORAGE:                                 STORAGE:
          --------                                 --------
      STORAGE CHANGE =  1059213006.4479        STORAGE CHANGE =         -51.4774

 PERCENT DISCREPANCY IS DIFFERENCE BETWEEN IN-OUT MINUS CHANGE IN STORAGE
 DIVIDED BY THE AVERAGE OF IN AND OUT TIMES 100

 PERCENT DISCREPANCY =          -0.00     PERCENT DISCREPANCY =           0.00






1
  VOLUMETRIC BUDGET FOR AGRICULTURAL FIELDS AT  END OF TIME STEP   30, STRESS PERIOD  32
  ------------------------------------------------------------------------------

     CUMULATIVE VOLUMES      L**3       RATES FOR THIS TIME STEP      L**3/T
     ------------------                 ------------------------

           IN:                                      IN:
           ---                                      ---
               AG WELLS  =  7600574976.0000                 AG WELLS  =         600.0000
      DIVERSION SEGMENTS =   822337600.0000        DIVERSION SEGMENTS =          50.8768
       IRRIGATION PONDS  =           0.0000         IRRIGATION PONDS  =           0.0000
           GW IRRIGATION =           0.0000             GW IRRIGATION =           0.0000
           SW IRRIGATION =           0.0000             SW IRRIGATION =           0.0000
        SYSTEM LOSSES GW =           0.0000          SYSTEM LOSSES GW =           0.0000
        SYSTEM LOSSES SW =           0.0000          SYSTEM LOSSES SW =           0.0000

                TOTAL IN =  8422912512.0000                  TOTAL IN =         650.8768

          OUT:                                     OUT:
          ----                                     ----
               AG WELLS  =           0.0000                 AG WELLS  =           0.0000
      DIVERSION SEGMENTS =           0.0000        DIVERSION SEGMENTS =           0.0000
       IRRIGATION PONDS  =           0.0000         IRRIGATION PONDS  =           0.0000
           GW IRRIGATION =  7600574976.0000             GW IRRIGATION =         600.0000
           SW IRRIGATION =   822353024.0000             SW IRRIGATION =          50.8778
        SYSTEM LOSSES GW =           0.0000          SYSTEM LOSSES GW =           0.0000
        SYSTEM LOSSES SW =           0.0000          SYSTEM LOSSES SW =           0.0000

               TOTAL OUT =  8422927872.0000                 TOTAL OUT =         650.8778

                IN - OUT =      -15360.0000                  IN - OUT =      -1.0376E-03

     PERCENT DISCREPANCY =          -0.00         PERCENT DISCREPANCY =          -0.00



1
  VOLUMETRIC BUDGET FOR ENTIRE MODEL AT END OF TIME STEP   30, STRESS PERIOD  32
  ------------------------------------------------------------------------------

     CUMULATIVE VOLUMES      L**3       RATES FOR THIS TIME STEP      L**3/T
     ------------------                 ------------------------

           IN:                                      IN:
           ---                                      ---
             STORAGE     =  6201347584.0000               STORAGE     =          34.3317
       CONSTANT HEAD     =           0.0000         CONSTANT HEAD     =           0.0000
     HEAD DEP BOUNDS     =    23373524.0000       HEAD DEP BOUNDS     =           0.2878
      STREAM LEAKAGE     =  1004447616.0000        STREAM LEAKAGE     =          12.7731
        UZF RECHARGE     =  6318315520.0000          UZF RECHARGE     =         642.3852
               GW ET     =           0.0000                 GW ET     =           0.0000
     SURFACE LEAKAGE     =           0.0000       SURFACE LEAKAGE     =           0.0000
           AG WELLS      =           0.0000             AG WELLS      =           0.0000

                TOTAL IN = 13547484160.0000                  TOTAL IN =         689.7778

          OUT:                                     OUT:
          ----                                     ----
             STORAGE     =  5080689152.0000               STORAGE     =          78.9273
       CONSTANT HEAD     =           0.0000         CONSTANT HEAD     =           0.0000
     HEAD DEP BOUNDS     =    23725842.0000       HEAD DEP BOUNDS     =           0.2881
      STREAM LEAKAGE     =   840987008.0000        STREAM LEAKAGE     =          10.5755
        UZF RECHARGE     =           0.0000          UZF RECHARGE     =           0.0000
               GW ET     =     1409387.3750                 GW ET     =           0.0000
     SURFACE LEAKAGE     =           0.0000       SURFACE LEAKAGE     =           0.0000
           AG WELLS      =  7600574976.0000             AG WELLS      =         600.0000

               TOTAL OUT = 13547386880.0000                 TOTAL OUT =         689.7909

                IN - OUT =       97280.0000                  IN - OUT =      -1.3123E-02

     PERCENT DISCREPANCY =           0.00         PERCENT DISCREPANCY =          -0.00






         TIME SUMMARY AT END OF TIME STEP   30 IN STRESS PERIOD   32
                    SECONDS     MINUTES      HOURS       DAYS        YEARS
                    -----------------------------------------------------------
   TIME STEP LENGTH  87667.      1461.1      24.352      1.0147     2.77799E-03
 STRESS PERIOD TIME 2.63000E+06  43833.      730.56      30.440     8.33397E-02
         TOTAL TIME 8.16164E+07 1.36027E+06  22671.      944.63      2.5863    
1
1
                            STRESS PERIOD NO.   33, LENGTH =   2630000.    
                            -----------------------------------------------

                              NUMBER OF TIME STEPS =    30

                               MULTIPLIER FOR DELT =     1.000

                            INITIAL TIME STEP SIZE =   87666.66    

 REUSING NON-PARAMETER GHB CELLS FROM LAST STRESS PERIOD

      2 GHB CELLS

 REUSING STREAM SEGMENT DATA FROM LAST STRESS PERIOD



            AREAL INFILTRATION RATE
 READING ON UNIT   19 WITH FORMAT: (FREE)              

            1           2           3           4           5           6           7           8           9          10
 ........................................................................................................................
   1   1.0000E-10  2.0000E-10   0.000       0.000       0.000       0.000       0.000       0.000       0.000       0.000    
   2   2.0000E-10  1.0000E-10  2.0000E-10   0.000       0.000      8.0000E-10  8.0000E-10  5.0000E-10   0.000       0.000    
   3    0.000      5.0000E-10  1.0000E-10  1.0000E-10  8.0000E-10  8.0000E-10  5.0000E-10  5.0000E-10   0.000       0.000    
   4   8.0000E-10  5.0000E-10  1.0000E-10  1.0000E-10  1.0000E-10  1.0000E-10  1.0000E-10  1.0000E-10  2.0000E-10   0.000    
   5   8.0000E-10  5.0000E-10  1.0000E-10  1.0000E-10  1.0000E-10  1.0000E-10  1.0000E-10  1.0000E-10  1.0000E-10  1.0000E-10
   6   8.0000E-10  5.0000E-10  5.0000E-10  2.0000E-10  2.0000E-10  1.0000E-10  1.0000E-10  1.0000E-10  1.0000E-10  5.0000E-10
   7   8.0000E-10  5.0000E-10  5.0000E-10  2.0000E-10  2.0000E-10  1.0000E-10  1.0000E-10  2.0000E-10  2.0000E-10   0.000    
   8    0.000      5.0000E-10  5.0000E-10  2.0000E-10  2.0000E-10  1.0000E-10  1.0000E-10  2.0000E-10  5.0000E-10   0.000    
   9    0.000      5.0000E-10  5.0000E-10  2.0000E-10  2.0000E-10  1.0000E-10  1.0000E-10  2.0000E-10  5.0000E-10   0.000    
  10    0.000      5.0000E-10  5.0000E-10  2.0000E-10  2.0000E-10  1.0000E-10  1.0000E-10  2.0000E-10  5.0000E-10  8.0000E-10
  11    0.000      1.0000E-10  1.0000E-10  1.0000E-10  1.0000E-10  1.0000E-10  1.0000E-10  2.0000E-10  5.0000E-10   0.000    
  12   1.0000E-10  1.0000E-10  1.0000E-10  1.0000E-10  1.0000E-10  1.0000E-10  1.0000E-10  1.0000E-10  2.0000E-10   0.000    
  13   1.0000E-10  1.0000E-10  2.0000E-10  2.0000E-10  2.0000E-10  2.0000E-10  2.0000E-10  1.0000E-10  1.0000E-10   0.000    
  14    0.000      2.0000E-10  5.0000E-10  5.0000E-10  5.0000E-10  5.0000E-10  5.0000E-10  2.0000E-10  1.0000E-10   0.000    
  15    0.000       0.000      8.0000E-10  8.0000E-10  8.0000E-10  8.0000E-10   0.000       0.000       0.000       0.000    

                  ET RATE =  3.250000E-07

 USING ET EXTINCTION DEPTH FROM PREVIOUS STRESS PERIOD. CURRENT PERIOD IS:      33

 USING EXTINCTION WATER CONTENT FROM PREVIOUS STRESS PERIOD. CURRENT PERIOD IS:      33

 USING AIR ENTRY PRESSURE FROM PREVIOUS STRESS PERIOD. CURRENT PERIOD IS:      33

 USING ROOT PRESSURE HEAD FROM PREVIOUS STRESS PERIOD. CURRENT PERIOD IS:      33

 USING ROOT ACTIVITY FROM PREVIOUS STRESS PERIOD. CURRENT PERIOD IS:      33

 PROCESSING AG STRESS PERIOD DATA

 READING AG STRESS PERIOD DATA

 READING IRRIGATION SEGMENT

 READING IRRIGATION WELL

 READING SUPPLEMENTAL WELL

 NO IRRPOND OR REUSING IRRPOND DATA FROM LAST STRESS PERIOD

 END PROCESSING AG STRESS PERIOD DATA OPTIONS
 
 SOLVING FOR HEAD 
                                                   Max.-Head-Change                         Max.-Flux-Residual
  Residual-Control   Outer-Iter.   Inner-Iter.     Column Row Layer    Maximum-Head-Change  Column Row Layer    Maximum-Flux-Residual          L2-NORM 
          0                 1           2             4    7     1       0.2035234303E+01       4    7    1         0.1063013862E+03      0.2560707870E+03
          0                 2           2             4    6     1       0.1203161746E+01       4    6    1         0.6382474779E+02      0.1448944485E+03
          0                 3           2             5    8     1       0.6892333880E+00       5    8    1         0.3705522353E+02      0.8003566940E+02
          0                 4           2             5    8     1       0.4120680683E+00       5    8    1         0.2211907189E+02      0.4744063172E+02
          0                 5           2             4    7     1       0.2482811182E+00       5    8    1         0.1322725350E+02      0.2883935747E+02
          0                 6           2             4    7     1       0.1523854126E+00       4    7    1         0.7999740242E+01      0.1631863333E+02
          0                 7           2             4    7     1       0.9347616573E-01       4    7    1         0.4909660949E+01      0.9580650524E+01
          0                 8           2             4    7     1       0.5730465257E-01       4    7    1         0.3011439656E+01      0.5782562476E+01
          0                 9           2             4    7     1       0.3510862935E-01       4    7    1         0.1845973734E+01      0.3502275031E+01
          0                10           2             4    7     1       0.2149743258E-01       4    7    1         0.1130870072E+01      0.2122159870E+01
                                                   Max.-Head-Change                         Max.-Flux-Residual
  Residual-Control   Outer-Iter.   Inner-Iter.     Column Row Layer    Maximum-Head-Change  Column Row Layer    Maximum-Flux-Residual          L2-NORM 
          0                11           2             4    7     1       0.1315601174E-01       4    7    1         0.6923897182E+00      0.1286078458E+01
          0                12           2             4    7     1       0.8047165335E-02       4    7    1         0.4236972842E+00      0.7794874132E+00
          0                13           2             4    7     1       0.4919916810E-02       4    7    1         0.2591456755E+00      0.4725002887E+00
          0                14           2             4    7     1       0.3006649379E-02       4    7    1         0.1584274703E+00      0.2864467463E+00
          0                15           2             4    7     1       0.1836669132E-02       4    7    1         0.9681198499E-01      0.1736725418E+00
          0                16           2             4    7     1       0.1121538227E-02       4    7    1         0.5913609656E-01      0.1053077439E+00
          0                17           2             4    7     1       0.6846099470E-03       4    7    1         0.3610878168E-01      0.6385985064E-01
          0                18           2             4    7     1       0.4177614937E-03       4    7    1         0.2204045221E-01      0.3872850399E-01
          0                19           2             4    7     1       0.2548467053E-03       4    7    1         0.1344886526E-01      0.2348906991E-01
          0                20           2             4    7     1       0.1554188473E-03       4    7    1         0.8203845806E-02      0.1424723162E-01
          0                21           1             4    7     1       0.9475680025E-04       4    7    1         0.5002931747E-02      0.8642158607E-02

    ------------------------------------------------
       NWT REQUIRED           21 OUTER ITERATIONS 
       AND A TOTAL OF         41 INNER ITERATIONS.
    ------------------------------------------------

 NO OUTPUT CONTROL FOR STRESS PERIOD   33   TIME STEP    1
 
 SOLVING FOR HEAD 
                                                   Max.-Head-Change                         Max.-Flux-Residual
  Residual-Control   Outer-Iter.   Inner-Iter.     Column Row Layer    Maximum-Head-Change  Column Row Layer    Maximum-Flux-Residual          L2-NORM 
          0                 1           2             4    7     1       0.2001276034E+01       4    7    1         0.1046333134E+03      0.2442307592E+03
          0                 2           2             4    8     1      -0.8760884706E+00       4    8    1        -0.4762246087E+02      0.1063963671E+03
          0                 3           2             5    8     1      -0.5154071021E+00       5    8    1        -0.2856083323E+02      0.5847185516E+02
          0                 4           2             5    8     1      -0.3133113409E+00       5    8    1        -0.1733371529E+02      0.3606374640E+02
          0                 5           2             5    6     1      -0.1732527925E+00       5    6    1        -0.9531656184E+01      0.2133771424E+02
          0                 6           2             5    6     1      -0.1058849576E+00       5    6    1        -0.5824048569E+01      0.1231025696E+02
          0                 7           2             5    6     1      -0.6472410103E-01       5    6    1        -0.3559448169E+01      0.7502210582E+01
          0                 8           2             4    6     1      -0.3984045629E-01       5    6    1        -0.2175783088E+01      0.4612089874E+01
          0                 9           2             4    6     1      -0.2459663548E-01       4    6    1        -0.1340615720E+01      0.2839261749E+01
          0                10           2             4    6     1      -0.1518701758E-01       4    6    1        -0.8276646748E+00      0.1748517317E+01
                                                   Max.-Head-Change                         Max.-Flux-Residual
  Residual-Control   Outer-Iter.   Inner-Iter.     Column Row Layer    Maximum-Head-Change  Column Row Layer    Maximum-Flux-Residual          L2-NORM 
          0                11           2             4    6     1      -0.9377986833E-02       4    6    1        -0.5110335408E+00      0.1077050620E+01
          0                12           2             4    6     1      -0.5791385069E-02       4    6    1        -0.3155616633E+00      0.6635835712E+00
          0                13           2             4    6     1      -0.3576734731E-02       4    6    1        -0.1948741864E+00      0.4089245537E+00
          0                14           2             4    6     1      -0.2209116514E-02       4    6    1        -0.1203525901E+00      0.2520419202E+00
          0                15           2             4    6     1      -0.1364503292E-02       4    6    1        -0.7433336330E-01      0.1553739087E+00
          0                16           2             4    7     1      -0.8514867220E-03       4    6    1        -0.4591301878E-01      0.9579723489E-01
          0                17           2             4    7     1      -0.5322705889E-03       4    7    1        -0.2868725885E-01      0.5907335348E-01
          0                18           2             4    7     1      -0.3324956799E-03       4    7    1        -0.1793101841E-01      0.3643247306E-01
          0                19           2             4    7     1      -0.2075675498E-03       4    7    1        -0.1120010472E-01      0.2247186247E-01
          0                20           2             4    7     1      -0.1295006505E-03       4    7    1        -0.6991352464E-02      0.1386239529E-01
          0                21           1             4    7     1      -0.8074970865E-04       4    7    1        -0.4361553897E-02      0.8552282886E-02

    ------------------------------------------------
       NWT REQUIRED           21 OUTER ITERATIONS 
       AND A TOTAL OF         41 INNER ITERATIONS.
    ------------------------------------------------

 NO OUTPUT CONTROL FOR STRESS PERIOD   33   TIME STEP    2
 
 SOLVING FOR HEAD 
                                                   Max.-Head-Change                         Max.-Flux-Residual
  Residual-Control   Outer-Iter.   Inner-Iter.     Column Row Layer    Maximum-Head-Change  Column Row Layer    Maximum-Flux-Residual          L2-NORM 
          0                 1           2             4    7     1       0.1991474574E+01       4    7    1         0.1041006869E+03      0.2444412770E+03
          0                 2           2             5    7     1       0.9765606129E+00       5    7    1         0.5188979276E+02      0.1154175689E+03
          0                 3           2             4    6     1       0.5865097500E+00       4    6    1         0.3114564892E+02      0.6585797922E+02
          0                 4           2             4    6     1       0.3551151226E+00       4    6    1         0.1886001692E+02      0.3973963120E+02
          0                 5           2             4    7     1       0.1995752376E+00       4    7    1         0.1050211135E+02      0.2161610543E+02
          0                 6           2             4    7     1       0.1212509406E+00       4    7    1         0.6427520196E+01      0.1153222989E+02
          0                 7           2             4    7     1       0.7338277727E-01       4    7    1         0.3900321490E+01      0.6836076495E+01
          0                 8           2             4    7     1       0.4435163569E-01       4    7    1         0.2359507914E+01      0.4119452623E+01
          0                 9           2             4    7     1       0.2679325435E-01       4    7    1         0.1425839417E+01      0.2487704962E+01
          0                10           2             4    7     1       0.1618399230E-01       4    7    1         0.8613204828E+00      0.1502701577E+01
                                                   Max.-Head-Change                         Max.-Flux-Residual
  Residual-Control   Outer-Iter.   Inner-Iter.     Column Row Layer    Maximum-Head-Change  Column Row Layer    Maximum-Flux-Residual          L2-NORM 
          0                11           2             4    7     1       0.9775570009E-02       4    7    1         0.5202589730E+00      0.9077583022E+00
          0                12           2             4    7     1       0.5904900331E-02       4    7    1         0.3142508136E+00      0.5483847520E+00
          0                13           2             4    7     1       0.3566994292E-02       4    7    1         0.1898231746E+00      0.3312979773E+00
          0                14           2             4    7     1       0.2154826879E-02       4    7    1         0.1146679217E+00      0.2001567389E+00
          0                15           2             4    7     1       0.1301792171E-02       4    7    1         0.6927153276E-01      0.1209312970E+00
          0                16           2             4    7     1       0.7864822031E-03       4    7    1         0.4184916557E-01      0.7306730116E-01
          0                17           2             4    7     1       0.4751740154E-03       4    7    1         0.2528346429E-01      0.4414912049E-01
          0                18           2             4    7     1       0.2870989551E-03       4    7    1         0.1527575515E-01      0.2667684774E-01
          0                19           2             4    7     1       0.1734699975E-03       4    7    1         0.9229618329E-02      0.1611978848E-01
          0                20           1             4    7     1       0.1048165239E-03       4    7    1         0.5576714909E-02      0.9740820542E-02
          0                21           1             4    7     1       0.6333541654E-04       4    7    1         0.3369656174E-02      0.5886297183E-02

    ------------------------------------------------
       NWT REQUIRED           21 OUTER ITERATIONS 
       AND A TOTAL OF         40 INNER ITERATIONS.
    ------------------------------------------------

 NO OUTPUT CONTROL FOR STRESS PERIOD   33   TIME STEP    3
 
 SOLVING FOR HEAD 
                                                   Max.-Head-Change                         Max.-Flux-Residual
  Residual-Control   Outer-Iter.   Inner-Iter.     Column Row Layer    Maximum-Head-Change  Column Row Layer    Maximum-Flux-Residual          L2-NORM 
          0                 1           2             4    7     1       0.1956538978E+01       4    7    1         0.1024276437E+03      0.2344628787E+03
          0                 2           2             5    8     1      -0.9053913535E+00       5    8    1        -0.5013784297E+02      0.1077149877E+03
          0                 3           2             5    6     1      -0.5321184236E+00       5    6    1        -0.2944843601E+02      0.6457215827E+02
          0                 4           2             5    6     1      -0.3232576109E+00       5    6    1        -0.1787733412E+02      0.3980889457E+02
          0                 5           2             4    6     1      -0.1917133631E+00       4    6    1        -0.1050916597E+02      0.2313990093E+02
          0                 6           2             4    8     1      -0.1117792509E+00       4    8    1        -0.6077043792E+01      0.1250443978E+02
          0                 7           2             4    8     1      -0.6919790079E-01       4    8    1        -0.3762612953E+01      0.7436892158E+01
          0                 8           2             4    8     1      -0.4282847346E-01       4    8    1        -0.2329191503E+01      0.4546615559E+01
          0                 9           2             4    8     1      -0.2650191565E-01       4    8    1        -0.1441545080E+01      0.2791823187E+01
          0                10           2             4    8     1      -0.1639562361E-01       4    8    1        -0.8919825724E+00      0.1715457423E+01
                                                   Max.-Head-Change                         Max.-Flux-Residual
  Residual-Control   Outer-Iter.   Inner-Iter.     Column Row Layer    Maximum-Head-Change  Column Row Layer    Maximum-Flux-Residual          L2-NORM 
          0                11           2             4    8     1      -0.1014114830E-01       4    8    1        -0.5518116278E+00      0.1054220618E+01
          0                12           2             4    8     1      -0.6271304815E-02       4    8    1        -0.3412983914E+00      0.6479087001E+00
          0                13           2             4    8     1      -0.3877425587E-02       4    8    1        -0.2110520667E+00      0.3982211026E+00
          0                14           2             4    8     1      -0.2396883932E-02       4    8    1        -0.1304848636E+00      0.2447722084E+00
          0                15           2             4    8     1      -0.1481397501E-02       4    8    1        -0.8065828511E-01      0.1504617089E+00
          0                16           2             4    8     1      -0.9154197462E-03       4    8    1        -0.4984931961E-01      0.9249414679E-01
          0                17           2             4    8     1      -0.5655824000E-03       4    8    1        -0.3080306013E-01      0.5686239244E-01
          0                18           2             4    8     1      -0.3493825403E-03       4    8    1        -0.1903074239E-01      0.3495883108E-01
          0                19           2             4    8     1      -0.2157937472E-03       4    8    1        -0.1175567526E-01      0.2149353948E-01
          0                20           2             4    8     1      -0.1332635550E-03       4    8    1        -0.7260592216E-02      0.1321529012E-01
          0                21           1             4    8     1      -0.8228510388E-04       4    8    1        -0.4483649425E-02      0.8125718194E-02

    ------------------------------------------------
       NWT REQUIRED           21 OUTER ITERATIONS 
       AND A TOTAL OF         41 INNER ITERATIONS.
    ------------------------------------------------

 NO OUTPUT CONTROL FOR STRESS PERIOD   33   TIME STEP    4
 
 SOLVING FOR HEAD 
                                                   Max.-Head-Change                         Max.-Flux-Residual
  Residual-Control   Outer-Iter.   Inner-Iter.     Column Row Layer    Maximum-Head-Change  Column Row Layer    Maximum-Flux-Residual          L2-NORM 
          0                 1           2             4    7     1       0.1945720552E+01       4    7    1         0.1018318346E+03      0.2352298686E+03
          0                 2           2             4    7     1       0.1014667463E+01       4    7    1         0.5323743739E+02      0.1149361729E+03
          0                 3           2             4    8     1       0.5638817593E+00       5    7    1         0.3014751075E+02      0.6222415057E+02
          0                 4           2             5    7     1       0.3376222725E+00       5    7    1         0.1807334579E+02      0.3588405474E+02
          0                 5           2             5    7     1       0.2025137184E+00       5    7    1         0.1083917149E+02      0.2031447051E+02
          0                 6           2             5    7     1       0.1215552784E+00       5    7    1         0.6503833501E+01      0.1222166005E+02
          0                 7           2             5    7     1       0.7299043948E-01       5    7    1         0.3904067252E+01      0.7396035299E+01
          0                 8           2             4    6     1       0.4057872738E-01       4    6    1         0.2157595295E+01      0.4029682928E+01
          0                 9           2             4    6     1       0.2453063730E-01       4    6    1         0.1304662898E+01      0.2320977606E+01
          0                10           2             4    6     1       0.1482366165E-01       4    6    1         0.7886601932E+00      0.1383643013E+01
                                                   Max.-Head-Change                         Max.-Flux-Residual
  Residual-Control   Outer-Iter.   Inner-Iter.     Column Row Layer    Maximum-Head-Change  Column Row Layer    Maximum-Flux-Residual          L2-NORM 
          0                11           2             4    6     1       0.8954315681E-02       4    6    1         0.4765549972E+00      0.8285849873E+00
          0                12           2             4    6     1       0.5406875114E-02       4    6    1         0.2878498430E+00      0.4965967368E+00
          0                13           2             4    6     1       0.3263682495E-02       4    6    1         0.1738029212E+00      0.2977590903E+00
          0                14           2             4    6     1       0.1969374864E-02       4    6    1         0.1049052635E+00      0.1786111428E+00
          0                15           2             4    6     1       0.1188006358E-02       4    6    1         0.6329916611E-01      0.1071834418E+00
          0                16           2             4    6     1       0.7164556892E-03       4    6    1         0.3818300554E-01      0.6434460670E-01
          0                17           2             4    6     1       0.4319661346E-03       4    6    1         0.2302628448E-01      0.3864115997E-01
          0                18           2             4    6     1       0.2603806833E-03       4    6    1         0.1388253429E-01      0.2321293069E-01
          0                19           2             4    6     1       0.1569187272E-03       4    6    1         0.8367844228E-02      0.1394891577E-01
          0                20           1             4    6     1       0.9454876589E-04       4    6    1         0.5042739442E-02      0.8384384497E-02

    ------------------------------------------------
       NWT REQUIRED           20 OUTER ITERATIONS 
       AND A TOTAL OF         39 INNER ITERATIONS.
    ------------------------------------------------

 NO OUTPUT CONTROL FOR STRESS PERIOD   33   TIME STEP    5
 
 SOLVING FOR HEAD 
                                                   Max.-Head-Change                         Max.-Flux-Residual
  Residual-Control   Outer-Iter.   Inner-Iter.     Column Row Layer    Maximum-Head-Change  Column Row Layer    Maximum-Flux-Residual          L2-NORM 
          0                 1           2             4    7     1       0.1913836341E+01       4    7    1         0.1002918826E+03      0.2257412242E+03
          0                 2           2             4    6     1      -0.9891400345E+00       4    6    1        -0.5419519793E+02      0.1167583842E+03
          0                 3           2             5    7     1      -0.5857919031E+00       5    7    1        -0.3203060548E+02      0.6797334695E+02
          0                 4           2             5    8     1      -0.3236404184E+00       5    6    1        -0.1790928189E+02      0.4012955991E+02
          0                 5           2             5    8     1      -0.1952957655E+00       5    8    1        -0.1087438121E+02      0.2308359545E+02
          0                 6           2             5    8     1      -0.1178296591E+00       5    8    1        -0.6556106017E+01      0.1414226373E+02
          0                 7           2             5    8     1      -0.7103316790E-01       5    8    1        -0.3955787231E+01      0.8466065930E+01
          0                 8           2             5    8     1      -0.4252246249E-01       5    8    1        -0.2384434753E+01      0.4820513481E+01
          0                 9           2             4    7     1      -0.2606966711E-01       4    7    1        -0.1428079224E+01      0.2906490140E+01
          0                10           2             4    7     1      -0.1599506466E-01       4    7    1        -0.8767303626E+00      0.1770397752E+01
                                                   Max.-Head-Change                         Max.-Flux-Residual
  Residual-Control   Outer-Iter.   Inner-Iter.     Column Row Layer    Maximum-Head-Change  Column Row Layer    Maximum-Flux-Residual          L2-NORM 
          0                11           2             4    7     1      -0.9813596069E-02       4    7    1        -0.5378721338E+00      0.1080723005E+01
          0                12           2             4    7     1      -0.6022805314E-02       4    7    1        -0.3300024907E+00      0.6603326590E+00
          0                13           2             4    7     1      -0.3697766391E-02       4    7    1        -0.2025329809E+00      0.4037586087E+00
          0                14           2             4    7     1      -0.2271197588E-02       4    7    1        -0.1243505578E+00      0.2470339050E+00
          0                15           2             4    7     1      -0.1395520758E-02       4    7    1        -0.7637913124E-01      0.1512303811E+00
          0                16           2             4    7     1      -0.8577686121E-03       4    7    1        -0.4693173548E-01      0.9262812020E-01
          0                17           2             4    7     1      -0.5274022033E-03       4    7    1        -0.2884759242E-01      0.5676014221E-01
          0                18           2             4    7     1      -0.3243675794E-03       4    7    1        -0.1773736012E-01      0.3479514452E-01
          0                19           2             4    7     1      -0.1995460881E-03       4    7    1        -0.1090914355E-01      0.2133773694E-01
          0                20           2             4    7     1      -0.1227854177E-03       4    7    1        -0.6711216419E-02      0.1308925020E-01
          0                21           1             4    7     1      -0.7556777484E-04       4    7    1        -0.4129603567E-02      0.8031599239E-02

    ------------------------------------------------
       NWT REQUIRED           21 OUTER ITERATIONS 
       AND A TOTAL OF         41 INNER ITERATIONS.
    ------------------------------------------------

 NO OUTPUT CONTROL FOR STRESS PERIOD   33   TIME STEP    6
 
 SOLVING FOR HEAD 
                                                   Max.-Head-Change                         Max.-Flux-Residual
  Residual-Control   Outer-Iter.   Inner-Iter.     Column Row Layer    Maximum-Head-Change  Column Row Layer    Maximum-Flux-Residual          L2-NORM 
          0                 1           2             4    7     1       0.1900635900E+01       4    7    1         0.9957490070E+02      0.2244047947E+03
          0                 2           2             4    7     1       0.9824531793E+00       4    7    1         0.5177376676E+02      0.9998303109E+02
          0                 3           2             4    7     1       0.5979896540E+00       4    7    1         0.3163192660E+02      0.5646347862E+02
          0                 4           2             4    7     1       0.3636353794E+00       4    7    1         0.1924187304E+02      0.3155297782E+02
          0                 5           2             4    8     1       0.1826048466E+00       4    8    1         0.9812713411E+01      0.1657128241E+02
          0                 6           2             4    8     1       0.1083959195E+00       4    8    1         0.5860396701E+01      0.9162666513E+01
          0                 7           2             4    8     1       0.6413605236E-01       4    8    1         0.3475278863E+01      0.5367691398E+01
          0                 8           2             4    8     1       0.3790242764E-01       4    8    1         0.2055501880E+01      0.3169875518E+01
          0                 9           2             4    8     1       0.2238900505E-01       4    8    1         0.1214571420E+01      0.1873933072E+01
          0                10           2             4    8     1       0.1322291576E-01       4    8    1         0.7174119867E+00      0.1108127200E+01
                                                   Max.-Head-Change                         Max.-Flux-Residual
  Residual-Control   Outer-Iter.   Inner-Iter.     Column Row Layer    Maximum-Head-Change  Column Row Layer    Maximum-Flux-Residual          L2-NORM 
          0                11           2             4    8     1       0.7808898988E-02       4    8    1         0.4236943675E+00      0.6554367780E+00
          0                12           2             4    8     1       0.4611472679E-02       4    8    1         0.2502142223E+00      0.3877758123E+00
          0                13           2             4    8     1       0.2723223572E-02       4    8    1         0.1477612103E+00      0.2294760362E+00
          0                14           2             4    8     1       0.1608138281E-02       4    8    1         0.8725763031E-01      0.1358298923E+00
          0                15           2             4    8     1       0.9496444712E-03       4    8    1         0.5152797733E-01      0.8041708732E-01
          0                16           2             4    8     1       0.5607855604E-03       4    8    1         0.3042849355E-01      0.4762004166E-01
          0                17           2             4    8     1       0.3311548101E-03       4    8    1         0.1796867238E-01      0.2820417701E-01
          0                18           2             4    8     1       0.1955527978E-03       4    8    1         0.1061084653E-01      0.1670757894E-01
          0                19           2             4    8     1       0.1154771176E-03       4    8    1         0.6265890874E-02      0.9898848769E-02
          0                20           1             4    8     1       0.6819095215E-04       4    8    1         0.3700109544E-02      0.5865729301E-02

    ------------------------------------------------
       NWT REQUIRED           20 OUTER ITERATIONS 
       AND A TOTAL OF         39 INNER ITERATIONS.
    ------------------------------------------------

 NO OUTPUT CONTROL FOR STRESS PERIOD   33   TIME STEP    7
 
 SOLVING FOR HEAD 
                                                   Max.-Head-Change                         Max.-Flux-Residual
  Residual-Control   Outer-Iter.   Inner-Iter.     Column Row Layer    Maximum-Head-Change  Column Row Layer    Maximum-Flux-Residual          L2-NORM 
          0                 1           2             4    7     1       0.1819515196E+01       4    7    1         0.9733776411E+02      0.1585958580E+03
          0                 2           2             5    8     1      -0.1851690628E+01       5    8    1        -0.9937877768E+02      0.2069044514E+03
          0                 3           2             4    6     1      -0.5315166280E+00       4    6    1        -0.2922422978E+02      0.5250394963E+02
          0                 4           2             4    6     1      -0.3212899421E+00       4    6    1        -0.1787035399E+02      0.2014645340E+02
          0                 5           2             4    6     1      -0.1930600116E+00       4    6    1        -0.1078758959E+02      0.1103677422E+02
          0                 6           2             4    6     1      -0.1154882080E+00       4    6    1        -0.6474789789E+01      0.6505296766E+01
          0                 7           2             4    6     1      -0.6904096489E-01       4    6    1        -0.3873751627E+01      0.3878480133E+01
          0                 8           2             4    6     1      -0.4125654083E-01       4    6    1        -0.2315534836E+01      0.2316611269E+01
          0                 9           2             4    6     1      -0.2464919794E-01       4    6    1        -0.1383606478E+01      0.1383977769E+01
          0                10           2             4    6     1      -0.1472585114E-01       4    6    1        -0.8266244140E+00      0.8267953854E+00
                                                   Max.-Head-Change                         Max.-Flux-Residual
  Residual-Control   Outer-Iter.   Inner-Iter.     Column Row Layer    Maximum-Head-Change  Column Row Layer    Maximum-Flux-Residual          L2-NORM 
          0                11           2             4    6     1      -0.8797177484E-02       4    6    1        -0.4938281306E+00      0.4939194028E+00
          0                12           2             4    6     1      -0.5255315567E-02       4    6    1        -0.2950058177E+00      0.2950578426E+00
          0                13           2             4    6     1      -0.3139421488E-02       4    6    1        -0.1762295010E+00      0.1762599839E+00
          0                14           2             4    6     1      -0.1875413286E-02       4    6    1        -0.1052742999E+00      0.1052923654E+00
          0                15           2             4    6     1      -0.1120318068E-02       4    6    1        -0.6288727796E-01      0.6289803457E-01
          0                16           2             4    6     1      -0.6692414913E-03       4    6    1        -0.3756646157E-01      0.3757287858E-01
          0                17           2             4    6     1      -0.3997805029E-03       4    6    1        -0.2244062675E-01      0.2244445791E-01
          0                18           2             4    6     1      -0.2388128097E-03       4    6    1        -0.1340500323E-01      0.1340729127E-01
          0                19           2             4    6     1      -0.1426562784E-03       4    6    1        -0.8007484891E-02      0.8008851533E-02
          0                20           1             4    6     1      -0.8521605586E-04       4    6    1        -0.4783244735E-02      0.4784061082E-02

    ------------------------------------------------
       NWT REQUIRED           20 OUTER ITERATIONS 
       AND A TOTAL OF         39 INNER ITERATIONS.
    ------------------------------------------------

 NO OUTPUT CONTROL FOR STRESS PERIOD   33   TIME STEP    8
 
 SOLVING FOR HEAD 
                                                   Max.-Head-Change                         Max.-Flux-Residual
  Residual-Control   Outer-Iter.   Inner-Iter.     Column Row Layer    Maximum-Head-Change  Column Row Layer    Maximum-Flux-Residual          L2-NORM 
          0                 1           2             4    6     1       0.1328568716E+01       4    6    1         0.7269093410E+02      0.7885812020E+02
          0                 2           2             4    7     1      -0.1763004044E+00       4    7    1        -0.9442923032E+01      0.2127060668E+02
          0                 3           2             4    6     1       0.2541254571E-01       4    6    1         0.1359074279E+01      0.2428184345E+01
          0                 4           2             4    6     1       0.5595056816E-02       4    6    1         0.3071122130E+00      0.3374686184E+00
          0                 5           2             4    6     1       0.1231861222E-02       4    6    1         0.6712326191E-01      0.6738793417E-01
          0                 6           2             4    6     1       0.2712188764E-03       4    6    1         0.1479564176E-01      0.1479598465E-01
          0                 7           1             4    6     1       0.5971427871E-04       4    6    1         0.3257325912E-02      0.3257446061E-02

    ------------------------------------------------
       NWT REQUIRED            7 OUTER ITERATIONS 
       AND A TOTAL OF         13 INNER ITERATIONS.
    ------------------------------------------------

 NO OUTPUT CONTROL FOR STRESS PERIOD   33   TIME STEP    9
 
 SOLVING FOR HEAD 
                                                   Max.-Head-Change                         Max.-Flux-Residual
  Residual-Control   Outer-Iter.   Inner-Iter.     Column Row Layer    Maximum-Head-Change  Column Row Layer    Maximum-Flux-Residual          L2-NORM 
          0                 1           2             5    8     1       0.3998462997E+00       5    8    1         0.2205139839E+02      0.3789395863E+02
          0                 2           2             4    7     1      -0.1908117863E+01       4    7    1        -0.9972227840E+02      0.2409123226E+03
          0                 3           2             5    8     1      -0.5168274689E+00       5    8    1        -0.2957753131E+02      0.3700621393E+02
          0                 4           2             5    8     1       0.3422935585E-01       5    8    1         0.2014144381E+01      0.2546436033E+01
          0                 5           2             5    8     1      -0.1362383326E-02       5    8    1        -0.8240074408E-01      0.1042014639E+00
          0                 6           1             5    8     1       0.1681117964E-04       5    8    1         0.1045034852E-02      0.1327261049E-02

    ------------------------------------------------
       NWT REQUIRED            6 OUTER ITERATIONS 
       AND A TOTAL OF         11 INNER ITERATIONS.
    ------------------------------------------------

 NO OUTPUT CONTROL FOR STRESS PERIOD   33   TIME STEP   10
 
 SOLVING FOR HEAD 
                                                   Max.-Head-Change                         Max.-Flux-Residual
  Residual-Control   Outer-Iter.   Inner-Iter.     Column Row Layer    Maximum-Head-Change  Column Row Layer    Maximum-Flux-Residual          L2-NORM 
          0                 1           2             4    6     1      -0.1993050437E+00       4    6    1        -0.1091391511E+02      0.2323453667E+02
          0                 2           2             4    7     1      -0.1763273706E+00       4    7    1        -0.9494126356E+01      0.2220924455E+02
          0                 3           2             5    7     1      -0.5198685649E-01       5    7    1        -0.2957406675E+01      0.3970306550E+01
          0                 4           2             5    7     1      -0.1569169757E-01       5    7    1        -0.8919397543E+00      0.9109717480E+00
          0                 5           2             5    7     1      -0.4736244716E-02       5    7    1        -0.2692247132E+00      0.2693329684E+00
          0                 6           2             5    7     1      -0.1429514018E-02       5    7    1        -0.8125350771E-01      0.8125453374E-01
          0                 7           2             5    7     1      -0.4314526190E-03       5    7    1        -0.2452434251E-01      0.2452455865E-01
          0                 8           2             5    7     1      -0.1302171994E-03       5    7    1        -0.7401607408E-02      0.7401675656E-02
          0                 9           1             5    7     1      -0.3930014784E-04       5    7    1        -0.2233819977E-02      0.2233840422E-02

    ------------------------------------------------
       NWT REQUIRED            9 OUTER ITERATIONS 
       AND A TOTAL OF         17 INNER ITERATIONS.
    ------------------------------------------------

 NO OUTPUT CONTROL FOR STRESS PERIOD   33   TIME STEP   11
 
 SOLVING FOR HEAD 
                                                   Max.-Head-Change                         Max.-Flux-Residual
  Residual-Control   Outer-Iter.   Inner-Iter.     Column Row Layer    Maximum-Head-Change  Column Row Layer    Maximum-Flux-Residual          L2-NORM 
          0                 1           2             5    8     1       0.1535851753E+01       5    8    1         0.8393811419E+02      0.9177331945E+02
          0                 2           2             4    7     1      -0.1916314064E+01       4    7    1        -0.1005306607E+03      0.2226745578E+03
          0                 3           2             4    8     1      -0.7123836388E+00       4    8    1        -0.3962125711E+02      0.5829649639E+02
          0                 4           2             5    8     1      -0.2621789252E+00       5    8    1        -0.1496750548E+02      0.1542062944E+02
          0                 5           2             5    8     1      -0.1542334926E+00       5    8    1        -0.8757105284E+01      0.8758575940E+01
          0                 6           2             5    8     1      -0.9073278206E-01       5    8    1        -0.5153165930E+01      0.5153173623E+01
          0                 7           2             5    8     1      -0.5337666513E-01       5    8    1        -0.3031420183E+01      0.3031426609E+01
          0                 8           2             5    8     1      -0.3152603412E-01       5    8    1        -0.1785877841E+01      0.1785879809E+01
          0                 9           2             5    8     1      -0.1859939733E-01       5    8    1        -0.1053582788E+01      0.1053584701E+01
          0                10           2             5    8     1      -0.1097302137E-01       5    8    1        -0.6215713241E+00      0.6215724337E+00
                                                   Max.-Head-Change                         Max.-Flux-Residual
  Residual-Control   Outer-Iter.   Inner-Iter.     Column Row Layer    Maximum-Head-Change  Column Row Layer    Maximum-Flux-Residual          L2-NORM 
          0                11           2             5    8     1      -0.6473678624E-02       5    8    1        -0.3667002030E+00      0.3667008578E+00
          0                12           1             5    8     1      -0.3819209209E-02       5    8    1        -0.2163361071E+00      0.2163364934E+00
          0                13           1             5    8     1      -0.2253165397E-02       5    8    1        -0.1276275238E+00      0.1276277518E+00
          0                14           1             5    8     1      -0.1329260054E-02       5    8    1        -0.7529342078E-01      0.7529355523E-01
          0                15           1             5    8     1      -0.7841949841E-03       5    8    1        -0.4441881778E-01      0.4441889710E-01
          0                16           1             5    8     1      -0.4626316832E-03       5    8    1        -0.2620439888E-01      0.2620444568E-01
          0                17           1             5    8     1      -0.2729253520E-03       5    8    1        -0.1545890123E-01      0.1545892885E-01
          0                18           1             5    8     1      -0.1610087854E-03       5    8    1        -0.9119693513E-02      0.9119709825E-02
          0                19           1             5    8     1      -0.9498443759E-04       5    8    1        -0.5379960116E-02      0.5379969770E-02

    ------------------------------------------------
       NWT REQUIRED           19 OUTER ITERATIONS 
       AND A TOTAL OF         30 INNER ITERATIONS.
    ------------------------------------------------

 NO OUTPUT CONTROL FOR STRESS PERIOD   33   TIME STEP   12
 
 SOLVING FOR HEAD 
                                                   Max.-Head-Change                         Max.-Flux-Residual
  Residual-Control   Outer-Iter.   Inner-Iter.     Column Row Layer    Maximum-Head-Change  Column Row Layer    Maximum-Flux-Residual          L2-NORM 
          0                 1           2             4    8     1       0.1142579575E+01       5    7    1         0.6186845668E+02      0.1005877679E+03
          0                 2           2             4    7     1       0.2695629268E+00       4    7    1         0.1449925034E+02      0.2422412407E+02
          0                 3           2             4    7     1       0.1602533026E+00       4    7    1         0.8628911914E+01      0.1014588799E+02
          0                 4           2             4    7     1       0.9458701489E-01       4    7    1         0.5128325362E+01      0.5460201749E+01
          0                 5           2             4    7     1       0.5563812929E-01       4    7    1         0.3023654691E+01      0.3135647296E+01
          0                 6           2             4    7     1       0.3267387582E-01       4    7    1         0.1777863534E+01      0.1830008300E+01
          0                 7           2             4    7     1       0.1917275600E-01       4    7    1         0.1043846931E+01      0.1071669826E+01
          0                 8           2             4    7     1       0.1124608838E-01       4    7    1         0.6124605790E+00      0.6279858638E+00
          0                 9           2             4    7     1       0.6595338141E-02       4    7    1         0.3592315029E+00      0.3680213208E+00
          0                10           2             4    7     1       0.3867520862E-02       4    7    1         0.2106686715E+00      0.2156711184E+00
                                                   Max.-Head-Change                         Max.-Flux-Residual
  Residual-Control   Outer-Iter.   Inner-Iter.     Column Row Layer    Maximum-Head-Change  Column Row Layer    Maximum-Flux-Residual          L2-NORM 
          0                11           2             4    7     1       0.2267818771E-02       4    7    1         0.1235351773E+00      0.1263882443E+00
          0                12           2             4    7     1       0.1329761766E-02       4    7    1         0.7243757201E-01      0.7406638980E-01
          0                13           2             4    7     1       0.7797114007E-03       4    7    1         0.4247448649E-01      0.4340486215E-01
          0                14           1             4    7     1       0.4571837394E-03       4    7    1         0.2490505545E-01      0.2543664774E-01
          0                15           1             4    7     1       0.2680684195E-03       4    7    1         0.1460306494E-01      0.1490686621E-01
          0                16           1             4    7     1       0.1571806480E-03       4    7    1         0.8562461757E-02      0.8736106677E-02
          0                17           1             4    7     1       0.9216187842E-04       4    7    1         0.5020556773E-02      0.5119822053E-02

    ------------------------------------------------
       NWT REQUIRED           17 OUTER ITERATIONS 
       AND A TOTAL OF         30 INNER ITERATIONS.
    ------------------------------------------------

 NO OUTPUT CONTROL FOR STRESS PERIOD   33   TIME STEP   13
 
 SOLVING FOR HEAD 
                                                   Max.-Head-Change                         Max.-Flux-Residual
  Residual-Control   Outer-Iter.   Inner-Iter.     Column Row Layer    Maximum-Head-Change  Column Row Layer    Maximum-Flux-Residual          L2-NORM 
          0                 1           2             5    8     1       0.1646632413E+01       5    8    1         0.9012440603E+02      0.1069005056E+03
          0                 2           2             4    7     1      -0.1837794230E+01       4    7    1        -0.9920199194E+02      0.2126393107E+03
          0                 3           2             4    8     1      -0.7156721412E+00       4    8    1        -0.3966712055E+02      0.6544824578E+02
          0                 4           2             5    8     1      -0.2667298525E+00       5    8    1        -0.1521791697E+02      0.1793433171E+02
          0                 5           2             5    8     1      -0.1569195929E+00       5    8    1        -0.8909529194E+01      0.9301672768E+01
          0                 6           2             5    8     1      -0.9231800353E-01       5    8    1        -0.5242940070E+01      0.5306675260E+01
          0                 7           2             5    8     1      -0.5431215521E-01       5    8    1        -0.3084401457E+01      0.3094680722E+01
          0                 8           2             5    8     1      -0.3195268260E-01       5    8    1        -0.1814565230E+01      0.1816219914E+01
          0                 9           2             5    8     1      -0.1879819956E-01       5    8    1        -0.1067516834E+01      0.1067784208E+01
          0                10           2             5    8     1      -0.1105918758E-01       5    8    1        -0.6280237015E+00      0.6280676136E+00
                                                   Max.-Head-Change                         Max.-Flux-Residual
  Residual-Control   Outer-Iter.   Inner-Iter.     Column Row Layer    Maximum-Head-Change  Column Row Layer    Maximum-Flux-Residual          L2-NORM 
          0                11           2             5    8     1      -0.6506206957E-02       5    8    1        -0.3694670180E+00      0.3694746445E+00
          0                12           1             5    8     1      -0.3827630361E-02       5    8    1        -0.2173567710E+00      0.2173583326E+00
          0                13           1             5    8     1      -0.2251798109E-02       5    8    1        -0.1278698759E+00      0.1278703242E+00
          0                14           1             5    8     1      -0.1324726356E-02       5    8    1        -0.7522474378E-01      0.7522493165E-01
          0                15           1             5    8     1      -0.7793277248E-03       5    8    1        -0.4425379239E-01      0.4425389064E-01
          0                16           1             5    8     1      -0.4584703708E-03       5    8    1        -0.2603379709E-01      0.2603385289E-01
          0                17           1             5    8     1      -0.2697115861E-03       5    8    1        -0.1531516735E-01      0.1531519986E-01
          0                18           1             5    8     1      -0.1586664504E-03       5    8    1        -0.9009551406E-02      0.9009570487E-02
          0                19           1             5    8     1      -0.9333999541E-04       5    8    1        -0.5300071946E-02      0.5300083201E-02

    ------------------------------------------------
       NWT REQUIRED           19 OUTER ITERATIONS 
       AND A TOTAL OF         30 INNER ITERATIONS.
    ------------------------------------------------

 NO OUTPUT CONTROL FOR STRESS PERIOD   33   TIME STEP   14
 
 SOLVING FOR HEAD 
                                                   Max.-Head-Change                         Max.-Flux-Residual
  Residual-Control   Outer-Iter.   Inner-Iter.     Column Row Layer    Maximum-Head-Change  Column Row Layer    Maximum-Flux-Residual          L2-NORM 
          0                 1           2             4    8     1       0.1260661118E+01       4    8    1         0.6764658503E+02      0.1064896539E+03
          0                 2           2             5    7     1       0.3189764792E+00       5    7    1         0.1727292814E+02      0.2986421411E+02
          0                 3           2             5    6     1       0.1470393358E+00       5    6    1         0.8060097664E+01      0.1277427747E+02
          0                 4           2             4    7     1       0.8674735840E-01       5    6    1         0.4691172807E+01      0.6876418743E+01
          0                 5           2             4    7     1       0.5112413465E-01       4    7    1         0.2774225766E+01      0.3924040819E+01
          0                 6           2             4    7     1       0.3006140101E-01       4    7    1         0.1634018228E+01      0.2273033891E+01
          0                 7           2             4    7     1       0.1765683351E-01       4    7    1         0.9605446111E+00      0.1321192556E+01
          0                 8           2             4    7     1       0.1036527446E-01       4    7    1         0.5641070643E+00      0.7685334090E+00
          0                 9           2             4    7     1       0.6083187765E-02       4    7    1         0.3311313362E+00      0.4471561996E+00
          0                10           2             4    7     1       0.3569614853E-02       4    7    1         0.1943283320E+00      0.2602064198E+00
                                                   Max.-Head-Change                         Max.-Flux-Residual
  Residual-Control   Outer-Iter.   Inner-Iter.     Column Row Layer    Maximum-Head-Change  Column Row Layer    Maximum-Flux-Residual          L2-NORM 
          0                11           2             4    7     1       0.2094493932E-02       4    7    1         0.1140299121E+00      0.1514394306E+00
          0                12           2             4    7     1       0.1228904356E-02       4    7    1         0.6690714681E-01      0.8815079851E-01
          0                13           2             4    7     1       0.7210161372E-03       4    7    1         0.3925627966E-01      0.5131952046E-01
          0                14           2             4    7     1       0.4230221732E-03       4    7    1         0.2303215169E-01      0.2988196923E-01
          0                15           2             4    7     1       0.2481842431E-03       4    7    1         0.1351299255E-01      0.1740228999E-01
          0                16           2             4    7     1       0.1456059363E-03       4    7    1         0.7927964426E-02      0.1013617021E-01
          0                17           1             4    7     1       0.8542366982E-04       4    7    1         0.4651207959E-02      0.5904880974E-02

    ------------------------------------------------
       NWT REQUIRED           17 OUTER ITERATIONS 
       AND A TOTAL OF         33 INNER ITERATIONS.
    ------------------------------------------------

 NO OUTPUT CONTROL FOR STRESS PERIOD   33   TIME STEP   15
 
 SOLVING FOR HEAD 
                                                   Max.-Head-Change                         Max.-Flux-Residual
  Residual-Control   Outer-Iter.   Inner-Iter.     Column Row Layer    Maximum-Head-Change  Column Row Layer    Maximum-Flux-Residual          L2-NORM 
          0                 1           2             4    6     1       0.1838265880E+01       4    6    1         0.9969713976E+02      0.1388820083E+03
          0                 2           2             4    7     1      -0.1789926235E+01       4    7    1        -0.9672644190E+02      0.2048844965E+03
          0                 3           2             4    8     1      -0.6192238045E+00       4    8    1        -0.3408515730E+02      0.5944027611E+02
          0                 4           2             5    8     1      -0.2829818091E+00       5    8    1        -0.1612459207E+02      0.1939216152E+02
          0                 5           2             5    8     1      -0.1664894323E+00       5    8    1        -0.9453282140E+01      0.1027047350E+02
          0                 6           2             5    8     1      -0.9795344219E-01       5    8    1        -0.5562712445E+01      0.6046854271E+01
          0                 7           2             5    8     1      -0.5763082146E-01       5    8    1        -0.3272706452E+01      0.3565990612E+01
          0                 8           2             5    8     1      -0.3390704713E-01       5    8    1        -0.1925453665E+01      0.2103085747E+01
          0                 9           2             5    8     1      -0.1994913205E-01       5    8    1        -0.1132817688E+01      0.1240399462E+01
          0                10           2             5    8     1      -0.1173697617E-01       5    8    1        -0.6664788728E+00      0.7316324132E+00
                                                   Max.-Head-Change                         Max.-Flux-Residual
  Residual-Control   Outer-Iter.   Inner-Iter.     Column Row Layer    Maximum-Head-Change  Column Row Layer    Maximum-Flux-Residual          L2-NORM 
          0                11           2             5    8     1      -0.6905358262E-02       5    8    1        -0.3921130107E+00      0.4315695542E+00
          0                12           2             5    8     1      -0.4062690551E-02       5    8    1        -0.2306928216E+00      0.2545864105E+00
          0                13           2             5    8     1      -0.2390224357E-02       5    8    1        -0.1357233451E+00      0.1501918848E+00
          0                14           2             5    8     1      -0.1406244716E-02       5    8    1        -0.7984955288E-01      0.8861045058E-01
          0                15           2             5    8     1      -0.8273331073E-03       5    8    1        -0.4697726979E-01      0.5228187103E-01
          0                16           2             5    8     1      -0.4867401145E-03       5    8    1        -0.2763760108E-01      0.3084931408E-01
          0                17           2             5    8     1      -0.2863591705E-03       5    8    1        -0.1625961148E-01      0.1820407677E-01
          0                18           1             5    8     1      -0.1684698776E-03       5    8    1        -0.9565710013E-02      0.1074288972E-01
          0                19           1             5    8     1      -0.9911300211E-04       5    8    1        -0.5627577345E-02      0.6340207277E-02

    ------------------------------------------------
       NWT REQUIRED           19 OUTER ITERATIONS 
       AND A TOTAL OF         36 INNER ITERATIONS.
    ------------------------------------------------

 NO OUTPUT CONTROL FOR STRESS PERIOD   33   TIME STEP   16
 
 SOLVING FOR HEAD 
                                                   Max.-Head-Change                         Max.-Flux-Residual
  Residual-Control   Outer-Iter.   Inner-Iter.     Column Row Layer    Maximum-Head-Change  Column Row Layer    Maximum-Flux-Residual          L2-NORM 
          0                 1           2             4    8     1       0.1203269167E+01       4    8    1         0.6445664376E+02      0.1043088519E+03
          0                 2           2             5    7     1       0.3781512038E+00       5    7    1         0.2049748266E+02      0.3308648254E+02
          0                 3           2             5    6     1       0.1596611424E+00       5    6    1         0.8780649055E+01      0.1426989002E+02
          0                 4           2             5    6     1       0.9232858408E-01       5    6    1         0.5092383871E+01      0.7453725640E+01
          0                 5           2             4    7     1       0.5404921482E-01       5    6    1         0.2943035947E+01      0.4211443876E+01
          0                 6           2             4    7     1       0.3179043811E-01       4    7    1         0.1727539192E+01      0.2433346595E+01
          0                 7           2             4    7     1       0.1868164632E-01       4    7    1         0.1015820719E+01      0.1413847437E+01
          0                 8           2             4    7     1       0.1097359590E-01       4    7    1         0.5968665210E+00      0.8226529385E+00
          0                 9           2             4    7     1       0.6444572211E-02       4    7    1         0.3505765707E+00      0.4788723299E+00
          0                10           2             4    7     1       0.3784379462E-02       4    7    1         0.2058800459E+00      0.2788150050E+00
                                                   Max.-Head-Change                         Max.-Flux-Residual
  Residual-Control   Outer-Iter.   Inner-Iter.     Column Row Layer    Maximum-Head-Change  Column Row Layer    Maximum-Flux-Residual          L2-NORM 
          0                11           2             4    7     1       0.2222136988E-02       4    7    1         0.1208948753E+00      0.1623628500E+00
          0                12           2             4    7     1       0.1304763046E-02       4    7    1         0.7098724487E-01      0.9456456477E-01
          0                13           2             4    7     1       0.7660925338E-03       4    7    1         0.4168107804E-01      0.5508600509E-01
          0                14           2             4    7     1       0.4498020441E-03       4    7    1         0.2447299100E-01      0.3209409327E-01
          0                15           2             4    7     1       0.2640906920E-03       4    7    1         0.1436898582E-01      0.1870163270E-01
          0                16           2             4    7     1       0.1550517508E-03       4    7    1         0.8436393438E-02      0.1089943259E-01
          0                17           1             4    7     1       0.9103164663E-04       4    7    1         0.4953127753E-02      0.6353271963E-02

    ------------------------------------------------
       NWT REQUIRED           17 OUTER ITERATIONS 
       AND A TOTAL OF         33 INNER ITERATIONS.
    ------------------------------------------------

 NO OUTPUT CONTROL FOR STRESS PERIOD   33   TIME STEP   17
 
 SOLVING FOR HEAD 
                                                   Max.-Head-Change                         Max.-Flux-Residual
  Residual-Control   Outer-Iter.   Inner-Iter.     Column Row Layer    Maximum-Head-Change  Column Row Layer    Maximum-Flux-Residual          L2-NORM 
          0                 1           2             4    6     1       0.1812384882E+01       4    6    1         0.9808484437E+02      0.1381099817E+03
          0                 2           2             4    7     1      -0.1751741637E+01       5    7    1        -0.9515796003E+02      0.2032202909E+03
          0                 3           2             4    8     1      -0.5264105769E+00       4    8    1        -0.2873053036E+02      0.5775099312E+02
          0                 4           2             5    8     1      -0.2971051383E+00       5    8    1        -0.1691312327E+02      0.2143616332E+02
          0                 5           2             5    8     1      -0.1748208037E+00       5    8    1        -0.9925794409E+01      0.1180926530E+02
          0                 6           2             5    8     1      -0.1028644189E+00       5    8    1        -0.5841116540E+01      0.6860448620E+01
          0                 7           2             5    8     1      -0.6052450548E-01       5    8    1        -0.3436809009E+01      0.4035819450E+01
          0                 8           2             5    8     1      -0.3561174548E-01       5    8    1        -0.2022144017E+01      0.2382213811E+01
          0                 9           2             5    8     1      -0.2095328209E-01       5    8    1        -0.1189777437E+01      0.1407429199E+01
          0                10           2             5    8     1      -0.1232843622E-01       5    8    1        -0.7000301970E+00      0.8317556756E+00
                                                   Max.-Head-Change                         Max.-Flux-Residual
  Residual-Control   Outer-Iter.   Inner-Iter.     Column Row Layer    Maximum-Head-Change  Column Row Layer    Maximum-Flux-Residual          L2-NORM 
          0                11           2             5    8     1      -0.7253726597E-02       5    8    1        -0.4118748843E+00      0.4916113146E+00
          0                12           2             5    8     1      -0.4267874712E-02       5    8    1        -0.2423323036E+00      0.2905964462E+00
          0                13           2             5    8     1      -0.2511073525E-02       5    8    1        -0.1425787236E+00      0.1717904062E+00
          0                14           2             5    8     1      -0.1477421699E-02       5    8    1        -0.8388716030E-01      0.1015659544E+00
          0                15           2             5    8     1      -0.8692541681E-03       5    8    1        -0.4935527569E-01      0.6005357399E-01
          0                16           2             5    8     1      -0.5114301727E-03       5    8    1        -0.2903815108E-01      0.3551172457E-01
          0                17           2             5    8     1      -0.3009006732E-03       5    8    1        -0.1708447386E-01      0.2100136374E-01
          0                18           2             5    8     1      -0.1770342184E-03       5    8    1        -0.1005151475E-01      0.1242128730E-01
          0                19           1             5    8     1      -0.1041570133E-03       5    8    1        -0.5913691567E-02      0.7347330712E-02
          0                20           1             5    8     1      -0.6127976077E-04       5    8    1        -0.3479229448E-02      0.4346472147E-02

    ------------------------------------------------
       NWT REQUIRED           20 OUTER ITERATIONS 
       AND A TOTAL OF         38 INNER ITERATIONS.
    ------------------------------------------------

 NO OUTPUT CONTROL FOR STRESS PERIOD   33   TIME STEP   18
 
 SOLVING FOR HEAD 
                                                   Max.-Head-Change                         Max.-Flux-Residual
  Residual-Control   Outer-Iter.   Inner-Iter.     Column Row Layer    Maximum-Head-Change  Column Row Layer    Maximum-Flux-Residual          L2-NORM 
          0                 1           2             4    8     1       0.1149238959E+01       4    8    1         0.6146066581E+02      0.1021665397E+03
          0                 2           2             5    7     1       0.3671720422E+00       5    7    1         0.1986467993E+02      0.3358286257E+02
          0                 3           2             5    7     1       0.1763406383E+00       5    7    1         0.9485991647E+01      0.1639710788E+02
          0                 4           2             4    7     1       0.9660822063E-01       4    7    1         0.5214332060E+01      0.7986928408E+01
          0                 5           2             4    7     1       0.5698083873E-01       4    7    1         0.3090757884E+01      0.4410536302E+01
          0                 6           2             4    7     1       0.3359724007E-01       4    7    1         0.1824250300E+01      0.2535319169E+01
          0                 7           2             4    7     1       0.1975403317E-01       4    7    1         0.1073688112E+01      0.1472045093E+01
          0                 8           2             4    7     1       0.1160680545E-01       4    7    1         0.6311690473E+00      0.8567129224E+00
          0                 9           2             4    7     1       0.6817521726E-02       4    7    1         0.3708187965E+00      0.4988967947E+00
          0                10           2             4    7     1       0.4003768641E-02       4    7    1         0.2177988545E+00      0.2905921191E+00
                                                   Max.-Head-Change                         Max.-Flux-Residual
  Residual-Control   Outer-Iter.   Inner-Iter.     Column Row Layer    Maximum-Head-Change  Column Row Layer    Maximum-Flux-Residual          L2-NORM 
          0                11           2             4    7     1       0.2351114564E-02       4    7    1         0.1279051578E+00      0.1692877169E+00
          0                12           2             4    7     1       0.1380564978E-02       4    7    1         0.7510825670E-01      0.9863548243E-01
          0                13           2             4    7     1       0.8106354970E-03       4    7    1         0.4410297011E-01      0.5747888714E-01
          0                14           2             4    7     1       0.4759744225E-03       4    7    1         0.2589612583E-01      0.3350054575E-01
          0                15           2             4    7     1       0.2794682952E-03       4    7    1         0.1520517834E-01      0.1952827588E-01
          0                16           2             4    7     1       0.1640866546E-03       4    7    1         0.8927696774E-02      0.1138528840E-01
          0                17           1             4    7     1       0.9633990236E-04       4    7    1         0.5241785654E-02      0.6638831198E-02

    ------------------------------------------------
       NWT REQUIRED           17 OUTER ITERATIONS 
       AND A TOTAL OF         33 INNER ITERATIONS.
    ------------------------------------------------

 NO OUTPUT CONTROL FOR STRESS PERIOD   33   TIME STEP   19
 
 SOLVING FOR HEAD 
                                                   Max.-Head-Change                         Max.-Flux-Residual
  Residual-Control   Outer-Iter.   Inner-Iter.     Column Row Layer    Maximum-Head-Change  Column Row Layer    Maximum-Flux-Residual          L2-NORM 
          0                 1           2             4    6     1       0.1764022875E+01       4    6    1         0.9527976270E+02      0.1370179444E+03
          0                 2           2             5    7     1      -0.1772489068E+01       5    7    1        -0.9710153586E+02      0.2024291851E+03
          0                 3           2             4    7     1      -0.5299304581E+00       5    8    1        -0.2945953937E+02      0.5872980953E+02
          0                 4           2             5    8     1      -0.3094666584E+00       5    8    1        -0.1760243580E+02      0.2325592769E+02
          0                 5           2             5    8     1      -0.1821011712E+00       5    8    1        -0.1033949342E+02      0.1300270216E+02
          0                 6           2             5    8     1      -0.1071524441E+00       5    8    1        -0.6084588131E+01      0.7592964074E+01
          0                 7           2             5    8     1      -0.6305015762E-01       5    8    1        -0.3580188750E+01      0.4477513241E+01
          0                 8           2             5    8     1      -0.3709937654E-01       5    8    1        -0.2106590392E+01      0.2647332492E+01
          0                 9           2             5    8     1      -0.2182951330E-01       5    8    1        -0.1239515038E+01      0.1566375347E+01
          0                10           2             5    8     1      -0.1284454579E-01       5    8    1        -0.7293253488E+00      0.9270220992E+00
                                                   Max.-Head-Change                         Max.-Flux-Residual
  Residual-Control   Outer-Iter.   Inner-Iter.     Column Row Layer    Maximum-Head-Change  Column Row Layer    Maximum-Flux-Residual          L2-NORM 
          0                11           2             5    8     1      -0.7557719690E-02       5    8    1        -0.4291296438E+00      0.5487081776E+00
          0                12           2             5    8     1      -0.4446928487E-02       5    8    1        -0.2524953063E+00      0.3248175912E+00
          0                13           2             5    8     1      -0.2616536705E-02       5    8    1        -0.1485646846E+00      0.1923017328E+00
          0                14           2             5    8     1      -0.1539539440E-02       5    8    1        -0.8741284711E-01      0.1138604618E+00
          0                15           2             5    8     1      -0.9058412495E-03       5    8    1        -0.5143186787E-01      0.6742321220E-01
          0                16           2             5    8     1      -0.5329796686E-03       5    8    1        -0.3026123461E-01      0.3992944006E-01
          0                17           2             5    8     1      -0.3135930714E-03       5    8    1        -0.1780484837E-01      0.2364964762E-01
          0                18           2             5    8     1      -0.1845098425E-03       5    8    1        -0.1047579988E-01      0.1400890213E-01
          0                19           1             5    8     1      -0.1085600105E-03       5    8    1        -0.6163584803E-02      0.8299114158E-02
          0                20           1             5    8     1      -0.6387302386E-04       5    8    1        -0.3626409318E-02      0.4917085728E-02

    ------------------------------------------------
       NWT REQUIRED           20 OUTER ITERATIONS 
       AND A TOTAL OF         38 INNER ITERATIONS.
    ------------------------------------------------

 NO OUTPUT CONTROL FOR STRESS PERIOD   33   TIME STEP   20
 
 SOLVING FOR HEAD 
                                                   Max.-Head-Change                         Max.-Flux-Residual
  Residual-Control   Outer-Iter.   Inner-Iter.     Column Row Layer    Maximum-Head-Change  Column Row Layer    Maximum-Flux-Residual          L2-NORM 
          0                 1           2             4    8     1       0.1098656843E+01       4    8    1         0.5866036740E+02      0.9984068677E+02
          0                 2           2             4    8     1       0.3378757502E+00       4    8    1         0.1811901590E+02      0.3305051937E+02
          0                 3           2             5    7     1       0.1976182329E+00       5    7    1         0.1066630078E+02      0.1704994776E+02
          0                 4           2             5    7     1       0.1139026703E+00       5    7    1         0.6143778137E+01      0.9613501760E+01
          0                 5           2             4    7     1       0.5992648489E-01       4    7    1         0.3235325848E+01      0.4675860550E+01
          0                 6           2             4    7     1       0.3533711769E-01       4    7    1         0.1917009728E+01      0.2585310538E+01
          0                 7           2             4    7     1       0.2077227148E-01       4    7    1         0.1129454581E+01      0.1487281814E+01
          0                 8           2             4    7     1       0.1219234162E-01       4    7    1         0.6636603770E+00      0.8639245552E+00
          0                 9           2             4    7     1       0.7151166841E-02       4    7    1         0.3894614311E+00      0.5029159510E+00
          0                10           2             4    7     1       0.4192890920E-02       4    7    1         0.2284090266E+00      0.2929029577E+00
                                                   Max.-Head-Change                         Max.-Flux-Residual
  Residual-Control   Outer-Iter.   Inner-Iter.     Column Row Layer    Maximum-Head-Change  Column Row Layer    Maximum-Flux-Residual          L2-NORM 
          0                11           2             4    7     1       0.2457952862E-02       4    7    1         0.1339151903E+00      0.1706146886E+00
          0                12           2             4    7     1       0.1440765843E-02       4    7    1         0.7850183341E-01      0.9939228344E-01
          0                13           2             4    7     1       0.8444824046E-03       4    7    1         0.4601447364E-01      0.5790736740E-01
          0                14           2             4    7     1       0.4949639153E-03       4    7    1         0.2697048732E-01      0.3374138376E-01
          0                15           2             4    7     1       0.2900990125E-03       4    7    1         0.1580774735E-01      0.1966262880E-01
          0                16           2             4    7     1       0.1700241936E-03       4    7    1         0.9264916395E-02      0.1145962660E-01
          0                17           1             4    7     1       0.9964785151E-04       4    7    1         0.5430065308E-02      0.6679584508E-02

    ------------------------------------------------
       NWT REQUIRED           17 OUTER ITERATIONS 
       AND A TOTAL OF         33 INNER ITERATIONS.
    ------------------------------------------------

 NO OUTPUT CONTROL FOR STRESS PERIOD   33   TIME STEP   21
 
 SOLVING FOR HEAD 
                                                   Max.-Head-Change                         Max.-Flux-Residual
  Residual-Control   Outer-Iter.   Inner-Iter.     Column Row Layer    Maximum-Head-Change  Column Row Layer    Maximum-Flux-Residual          L2-NORM 
          0                 1           2             4    6     1       0.1720588162E+01       4    6    1         0.9276795213E+02      0.1365333177E+03
          0                 2           2             5    7     1      -0.1803026099E+01       5    7    1        -0.9889007320E+02      0.2018809779E+03
          0                 3           2             5    8     1      -0.5450472181E+00       5    8    1        -0.3067976355E+02      0.5829425771E+02
          0                 4           2             5    8     1      -0.3206220211E+00       5    8    1        -0.1822191788E+02      0.2488023774E+02
          0                 5           2             5    8     1      -0.1886715861E+00       5    8    1        -0.1071246791E+02      0.1382588984E+02
          0                 6           2             5    8     1      -0.1110224590E+00       5    8    1        -0.6303951221E+01      0.8088854180E+01
          0                 7           2             5    8     1      -0.6543627941E-01       5    8    1        -0.3711947544E+01      0.4777314375E+01
          0                 8           2             5    8     1      -0.3854575332E-01       5    8    1        -0.2186505872E+01      0.2828450757E+01
          0                 9           2             5    8     1      -0.2270550061E-01       5    8    1        -0.1287956378E+01      0.1675649421E+01
          0                10           2             5    8     1      -0.1337465669E-01       5    8    1        -0.7586615959E+00      0.9929044992E+00
                                                   Max.-Head-Change                         Max.-Flux-Residual
  Residual-Control   Outer-Iter.   Inner-Iter.     Column Row Layer    Maximum-Head-Change  Column Row Layer    Maximum-Flux-Residual          L2-NORM 
          0                11           2             5    8     1      -0.7878279693E-02       5    8    1        -0.4468815303E+00      0.5884109946E+00
          0                12           2             5    8     1      -0.4640634914E-02       5    8    1        -0.2632291908E+00      0.3487344268E+00
          0                13           2             5    8     1      -0.2733510133E-02       5    8    1        -0.1550504533E+00      0.2067039848E+00
          0                14           2             5    8     1      -0.1610131151E-02       5    8    1        -0.9132913868E-01      0.1225302742E+00
          0                15           2             5    8     1      -0.9484164838E-03       5    8    1        -0.5379513407E-01      0.7264053904E-01
          0                16           2             5    8     1      -0.5586428025E-03       5    8    1        -0.3168647451E-01      0.4306814918E-01
          0                17           2             5    8     1      -0.3290535586E-03       5    8    1        -0.1866388856E-01      0.2553730835E-01
          0                18           2             5    8     1      -0.1938189534E-03       5    8    1        -0.1099328836E-01      0.1514383845E-01
          0                19           2             5    8     1      -0.1141624192E-03       5    8    1        -0.6475158141E-02      0.8981293122E-02
          0                20           1             5    8     1      -0.6724304171E-04       5    8    1        -0.3813909718E-02      0.5327014825E-02

    ------------------------------------------------
       NWT REQUIRED           20 OUTER ITERATIONS 
       AND A TOTAL OF         39 INNER ITERATIONS.
    ------------------------------------------------

 NO OUTPUT CONTROL FOR STRESS PERIOD   33   TIME STEP   22
 
 SOLVING FOR HEAD 
                                                   Max.-Head-Change                         Max.-Flux-Residual
  Residual-Control   Outer-Iter.   Inner-Iter.     Column Row Layer    Maximum-Head-Change  Column Row Layer    Maximum-Flux-Residual          L2-NORM 
          0                 1           2             4    8     1       0.1051475058E+01       4    8    1         0.5605097295E+02      0.9816105210E+02
          0                 2           2             4    8     1       0.3765680360E+00       4    8    1         0.2020485393E+02      0.3296687867E+02
          0                 3           2             5    7     1       0.1800615867E+00       5    7    1         0.9696010951E+01      0.1648710692E+02
          0                 4           2             5    7     1       0.1069822200E+00       5    7    1         0.5762650475E+01      0.9310742851E+01
          0                 5           2             5    7     1       0.6354902997E-01       5    7    1         0.3423686014E+01      0.5461482372E+01
          0                 6           2             5    7     1       0.3774410932E-01       5    7    1         0.2033674358E+01      0.3234858750E+01
          0                 7           2             5    7     1       0.2241590302E-01       5    7    1         0.1207856430E+01      0.1920495626E+01
          0                 8           2             5    7     1       0.1331204993E-01       5    7    1         0.7173296882E+00      0.1140808568E+01
          0                 9           2             5    7     1       0.7905406389E-02       5    7    1         0.4259960579E+00      0.6777565724E+00
          0                10           2             5    7     1       0.4694607793E-02       5    7    1         0.2529786754E+00      0.4026763065E+00
                                                   Max.-Head-Change                         Max.-Flux-Residual
  Residual-Control   Outer-Iter.   Inner-Iter.     Column Row Layer    Maximum-Head-Change  Column Row Layer    Maximum-Flux-Residual          L2-NORM 
          0                11           2             4    7     1       0.2790381980E-02       5    7    1         0.1502306987E+00      0.2392497287E+00
          0                12           2             4    7     1       0.1664180736E-02       4    7    1         0.8934282994E-01      0.1421537381E+00
          0                13           2             4    7     1       0.9924285709E-03       4    7    1         0.5328324374E-01      0.8446487927E-01
          0                14           2             4    7     1       0.5917824823E-03       4    7    1         0.3177489229E-01      0.5018856482E-01
          0                15           2             4    7     1       0.3528502836E-03       4    7    1         0.1894706375E-01      0.2982247817E-01
          0                16           2             4    7     1       0.2103708055E-03       4    7    1         0.1129706112E-01      0.1772117794E-01
          0                17           2             4    7     1       0.1254145877E-03       4    7    1         0.6735282775E-02      0.1053054612E-01
          0                18           1             4    7     1       0.7476168528E-04       4    7    1         0.4015262214E-02      0.6257749929E-02

    ------------------------------------------------
       NWT REQUIRED           18 OUTER ITERATIONS 
       AND A TOTAL OF         35 INNER ITERATIONS.
    ------------------------------------------------

 NO OUTPUT CONTROL FOR STRESS PERIOD   33   TIME STEP   23
 
 SOLVING FOR HEAD 
                                                   Max.-Head-Change                         Max.-Flux-Residual
  Residual-Control   Outer-Iter.   Inner-Iter.     Column Row Layer    Maximum-Head-Change  Column Row Layer    Maximum-Flux-Residual          L2-NORM 
          0                 1           2             4    6     1       0.1681681567E+01       4    6    1         0.9052081298E+02      0.1364206577E+03
          0                 2           2             5    7     1      -0.1811410398E+01       5    7    1        -0.9941341261E+02      0.2009695950E+03
          0                 3           2             5    8     1      -0.5625934574E+00       5    8    1        -0.3176366395E+02      0.5807380226E+02
          0                 4           2             5    8     1      -0.3310654621E+00       5    8    1        -0.1880726551E+02      0.2696355270E+02
          0                 5           2             5    8     1      -0.1948487736E+00       5    8    1        -0.1106172367E+02      0.1474412555E+02
          0                 6           2             5    8     1      -0.1148827063E+00       5    8    1        -0.6516856458E+01      0.8540319161E+01
          0                 7           2             5    8     1      -0.6767458141E-01       5    8    1        -0.3838807414E+01      0.5046853056E+01
          0                 8           2             5    8     1      -0.3986506059E-01       5    8    1        -0.2261305600E+01      0.2989564634E+01
          0                 9           2             5    8     1      -0.2348313229E-01       5    8    1        -0.1332042218E+01      0.1771847179E+01
          0                10           2             5    8     1      -0.1383301084E-01       5    8    1        -0.7846465099E+00      0.1050334826E+01
                                                   Max.-Head-Change                         Max.-Flux-Residual
  Residual-Control   Outer-Iter.   Inner-Iter.     Column Row Layer    Maximum-Head-Change  Column Row Layer    Maximum-Flux-Residual          L2-NORM 
          0                11           2             5    8     1      -0.8148443254E-02       5    8    1        -0.4621973635E+00      0.6226975998E+00
          0                12           2             5    8     1      -0.4799874218E-02       5    8    1        -0.2722565130E+00      0.3692051880E+00
          0                13           2             5    8     1      -0.2827368151E-02       5    8    1        -0.1603712332E+00      0.2189268722E+00
          0                14           2             5    8     1      -0.1665452142E-02       5    8    1        -0.9446523478E-01      0.1298289540E+00
          0                15           2             5    8     1      -0.9810231109E-03       5    8    1        -0.5564355527E-01      0.7699911759E-01
          0                16           2             5    8     1      -0.5778612864E-03       5    8    1        -0.3277593109E-01      0.4567115182E-01
          0                17           2             5    8     1      -0.3403809435E-03       5    8    1        -0.1930600862E-01      0.2709195813E-01
          0                18           2             4    6     1      -0.2028144461E-03       5    8    1        -0.1137174825E-01      0.1607241523E-01
          0                19           2             4    6     1      -0.1211991370E-03       4    6    1        -0.6786220533E-02      0.9535956376E-02
          0                20           1             4    6     1      -0.7242646276E-04       4    6    1        -0.4055288858E-02      0.5658349146E-02

    ------------------------------------------------
       NWT REQUIRED           20 OUTER ITERATIONS 
       AND A TOTAL OF         39 INNER ITERATIONS.
    ------------------------------------------------

 NO OUTPUT CONTROL FOR STRESS PERIOD   33   TIME STEP   24
 
 SOLVING FOR HEAD 
                                                   Max.-Head-Change                         Max.-Flux-Residual
  Residual-Control   Outer-Iter.   Inner-Iter.     Column Row Layer    Maximum-Head-Change  Column Row Layer    Maximum-Flux-Residual          L2-NORM 
          0                 1           2             4    8     1       0.1007534855E+01       4    8    1         0.5362335523E+02      0.9718918457E+02
          0                 2           2             4    8     1       0.4129481957E+00       4    8    1         0.2216643940E+02      0.3333103174E+02
          0                 3           2             4    7     1       0.1757227188E+00       4    7    1         0.9363716049E+01      0.1615368931E+02
          0                 4           2             4    7     1       0.1052654354E+00       4    7    1         0.5633861241E+01      0.9016613985E+01
          0                 5           2             4    7     1       0.6287828749E-01       4    7    1         0.3372327465E+01      0.5273980521E+01
          0                 6           2             4    7     1       0.3750691833E-01       4    7    1         0.2013623819E+01      0.3122544949E+01
          0                 7           2             4    7     1       0.2235766613E-01       4    7    1         0.1200902939E+01      0.1854101106E+01
          0                 8           2             4    7     1       0.1332275814E-01       4    7    1         0.7157867276E+00      0.1101655683E+01
          0                 9           2             4    7     1       0.7937511797E-02       4    7    1         0.4265122191E+00      0.6546721346E+00
          0                10           2             4    7     1       0.4728576170E-02       4    7    1         0.2541038361E+00      0.3890624510E+00
                                                   Max.-Head-Change                         Max.-Flux-Residual
  Residual-Control   Outer-Iter.   Inner-Iter.     Column Row Layer    Maximum-Head-Change  Column Row Layer    Maximum-Flux-Residual          L2-NORM 
          0                11           2             4    7     1       0.2816747159E-02       4    7    1         0.1513739691E+00      0.2312187952E+00
          0                12           2             4    7     1       0.1677815527E-02       4    7    1         0.9017056184E-01      0.1374149835E+00
          0                13           2             4    7     1       0.9993621417E-03       4    7    1         0.5371038093E-01      0.8166805076E-01
          0                14           2             4    7     1       0.5952310045E-03       4    7    1         0.3199149288E-01      0.4853750036E-01
          0                15           2             4    7     1       0.3545136278E-03       4    7    1         0.1905438665E-01      0.2884759148E-01
          0                16           2             4    7     1       0.2111375326E-03       4    7    1         0.1134854762E-01      0.1714542952E-01
          0                17           2             4    7     1       0.1257428429E-03       4    7    1         0.6758818192E-02      0.1019045360E-01
          0                18           1             4    7     1       0.7488357239E-04       4    7    1         0.4025191974E-02      0.6056819999E-02

    ------------------------------------------------
       NWT REQUIRED           18 OUTER ITERATIONS 
       AND A TOTAL OF         35 INNER ITERATIONS.
    ------------------------------------------------

 NO OUTPUT CONTROL FOR STRESS PERIOD   33   TIME STEP   25
 
 SOLVING FOR HEAD 
                                                   Max.-Head-Change                         Max.-Flux-Residual
  Residual-Control   Outer-Iter.   Inner-Iter.     Column Row Layer    Maximum-Head-Change  Column Row Layer    Maximum-Flux-Residual          L2-NORM 
          0                 1           2             4    6     1       0.1646684169E+01       4    6    1         0.8850010618E+02      0.1365337688E+03
          0                 2           2             5    7     1      -0.1781964852E+01       5    7    1        -0.9778322511E+02      0.1991533342E+03
          0                 3           2             5    8     1      -0.5810125584E+00       5    8    1        -0.3276454270E+02      0.5806573611E+02
          0                 4           2             5    8     1      -0.3422581108E+00       5    8    1        -0.1943233705E+02      0.2792370109E+02
          0                 5           2             5    8     1      -0.2015026498E+00       5    8    1        -0.1142856775E+02      0.1544952977E+02
          0                 6           2             5    8     1      -0.1187131029E+00       5    8    1        -0.6733679579E+01      0.8988228929E+01
          0                 7           2             5    8     1      -0.6993551077E-01       5    8    1        -0.3966938495E+01      0.5303626479E+01
          0                 8           2             5    8     1      -0.4119894329E-01       5    8    1        -0.2336924059E+01      0.3141317286E+01
          0                 9           2             5    8     1      -0.2426988324E-01       5    8    1        -0.1376652023E+01      0.1862433382E+01
          0                10           2             5    8     1      -0.1429699014E-01       5    8    1        -0.8109570970E+00      0.1104525446E+01
                                                   Max.-Head-Change                         Max.-Flux-Residual
  Residual-Control   Outer-Iter.   Inner-Iter.     Column Row Layer    Maximum-Head-Change  Column Row Layer    Maximum-Flux-Residual          L2-NORM 
          0                11           2             5    8     1      -0.8422051380E-02       5    8    1        -0.4777133191E+00      0.6551276047E+00
          0                12           2             5    8     1      -0.4961214441E-02       5    8    1        -0.2814060389E+00      0.3886133209E+00
          0                13           2             5    8     1      -0.2922504611E-02       5    8    1        -0.1657663833E+00      0.2305420613E+00
          0                14           2             5    8     1      -0.1721549942E-02       5    8    1        -0.9764650074E-01      0.1367806059E+00
          0                15           2             4    6     1      -0.1022486899E-02       5    8    1        -0.5751937627E-01      0.8115994893E-01
          0                16           2             4    6     1      -0.6112393762E-03       4    6    1        -0.3421614059E-01      0.4816178058E-01
          0                17           2             4    6     1      -0.3653935432E-03       4    6    1        -0.2045396708E-01      0.2858295826E-01
          0                18           2             4    6     1      -0.2184273162E-03       4    6    1        -0.1222700727E-01      0.1696507744E-01
          0                19           2             4    6     1      -0.1305719397E-03       4    6    1        -0.7309023930E-02      0.1007044354E-01
          0                20           1             4    6     1      -0.7805302417E-04       4    6    1        -0.4369134879E-02      0.5978406168E-02

    ------------------------------------------------
       NWT REQUIRED           20 OUTER ITERATIONS 
       AND A TOTAL OF         39 INNER ITERATIONS.
    ------------------------------------------------

 NO OUTPUT CONTROL FOR STRESS PERIOD   33   TIME STEP   26
 
 SOLVING FOR HEAD 
                                                   Max.-Head-Change                         Max.-Flux-Residual
  Residual-Control   Outer-Iter.   Inner-Iter.     Column Row Layer    Maximum-Head-Change  Column Row Layer    Maximum-Flux-Residual          L2-NORM 
          0                 1           2             4    8     1       0.9676741469E+00       4    8    1         0.5144764450E+02      0.9713624405E+02
          0                 2           2             4    8     1       0.4006924168E+00       4    8    1         0.2155470714E+02      0.3252011777E+02
          0                 3           2             5    7     1       0.1738920233E+00       5    7    1         0.9367672708E+01      0.1696398236E+02
          0                 4           2             5    7     1       0.1032510460E+00       5    7    1         0.5564818247E+01      0.9037807115E+01
          0                 5           2             5    7     1       0.6128759824E-01       5    7    1         0.3303966319E+01      0.5215364721E+01
          0                 6           2             5    7     1       0.3637317960E-01       5    7    1         0.1961093932E+01      0.3077854199E+01
          0                 7           2             5    7     1       0.2158544558E-01       5    7    1         0.1163856641E+01      0.1826323174E+01
          0                 8           2             4    7     1       0.1282138936E-01       5    7    1         0.6906795016E+00      0.1085047667E+01
          0                 9           2             4    7     1       0.7648406563E-02       4    7    1         0.4105425287E+00      0.6448199525E+00
          0                10           2             4    7     1       0.4561602651E-02       4    7    1         0.2448922267E+00      0.3832251348E+00
                                                   Max.-Head-Change                         Max.-Flux-Residual
  Residual-Control   Outer-Iter.   Inner-Iter.     Column Row Layer    Maximum-Head-Change  Column Row Layer    Maximum-Flux-Residual          L2-NORM 
          0                11           2             4    7     1       0.2720202339E-02       4    7    1         0.1460526540E+00      0.2277599786E+00
          0                12           2             4    7     1       0.1621943409E-02       4    7    1         0.8709327987E-01      0.1353649955E+00
          0                13           2             4    7     1       0.9670034159E-03       4    7    1         0.5192928394E-01      0.8045278879E-01
          0                14           2             4    7     1       0.5764772264E-03       4    7    1         0.3095984550E-01      0.4781695601E-01
          0                15           2             4    7     1       0.3436375785E-03       4    7    1         0.1845642616E-01      0.2842031746E-01
          0                16           2             4    7     1       0.2048260839E-03       4    7    1         0.1100173355E-01      0.1689203622E-01
          0                17           2             4    7     1       0.1220779938E-03       4    7    1         0.6557540719E-02      0.1004016777E-01
          0                18           1             4    7     1       0.7275422039E-04       4    7    1         0.3908306122E-02      0.5967680816E-02

    ------------------------------------------------
       NWT REQUIRED           18 OUTER ITERATIONS 
       AND A TOTAL OF         35 INNER ITERATIONS.
    ------------------------------------------------

 NO OUTPUT CONTROL FOR STRESS PERIOD   33   TIME STEP   27
 
 SOLVING FOR HEAD 
                                                   Max.-Head-Change                         Max.-Flux-Residual
  Residual-Control   Outer-Iter.   Inner-Iter.     Column Row Layer    Maximum-Head-Change  Column Row Layer    Maximum-Flux-Residual          L2-NORM 
          0                 1           2             4    6     1       0.1615287931E+01       4    6    1         0.8668265898E+02      0.1371407002E+03
          0                 2           2             5    7     1      -0.1759109724E+01       5    7    1        -0.9651133870E+02      0.1978625570E+03
          0                 3           2             5    8     1      -0.5914921936E+00       5    8    1        -0.3333349417E+02      0.5880150411E+02
          0                 4           2             5    8     1      -0.3484349681E+00       5    8    1        -0.1978439164E+02      0.2864783254E+02
          0                 5           2             5    8     1      -0.2053900174E+00       5    8    1        -0.1164887970E+02      0.1594871866E+02
          0                 6           2             5    8     1      -0.1210054438E+00       5    8    1        -0.6863331667E+01      0.9296694206E+01
          0                 7           2             5    8     1      -0.7128733990E-01       5    8    1        -0.4043433899E+01      0.5489720843E+01
          0                 8           2             5    8     1      -0.4199615426E-01       5    8    1        -0.2382037288E+01      0.3252824644E+01
          0                 9           2             5    8     1      -0.2474002441E-01       5    8    1        -0.1403257820E+01      0.1929132563E+01
          0                10           2             5    8     1      -0.1457424803E-01       5    8    1        -0.8266476192E+00      0.1144404907E+01
                                                   Max.-Head-Change                         Max.-Flux-Residual
  Residual-Control   Outer-Iter.   Inner-Iter.     Column Row Layer    Maximum-Head-Change  Column Row Layer    Maximum-Flux-Residual          L2-NORM 
          0                11           2             5    8     1      -0.8585559221E-02       5    8    1        -0.4869665414E+00      0.6789696577E+00
          0                12           2             5    8     1      -0.5057639829E-02       5    8    1        -0.2868629176E+00      0.4028675715E+00
          0                13           2             4    6     1      -0.3019764066E-02       4    6    1        -0.1690380750E+00      0.2390644649E+00
          0                14           2             4    6     1      -0.1805294584E-02       4    6    1        -0.1010560097E+00      0.1418762502E+00
          0                15           2             4    6     1      -0.1079235312E-02       4    6    1        -0.6041288465E-01      0.8420682934E-01
          0                16           2             4    6     1      -0.6451775371E-03       4    6    1        -0.3611523173E-01      0.4998370503E-01
          0                17           2             4    6     1      -0.3856900049E-03       4    6    1        -0.2158969315E-01      0.2967244797E-01
          0                18           2             4    6     1      -0.2305653875E-03       4    6    1        -0.1290620908E-01      0.1761660504E-01
          0                19           2             4    6     1      -0.1378309307E-03       4    6    1        -0.7715206583E-02      0.1046007905E-01
          0                20           1             4    6     1      -0.8239412632E-04       4    6    1        -0.4612042506E-02      0.6211429465E-02

    ------------------------------------------------
       NWT REQUIRED           20 OUTER ITERATIONS 
       AND A TOTAL OF         39 INNER ITERATIONS.
    ------------------------------------------------

 NO OUTPUT CONTROL FOR STRESS PERIOD   33   TIME STEP   28
 
 SOLVING FOR HEAD 
                                                   Max.-Head-Change                         Max.-Flux-Residual
  Residual-Control   Outer-Iter.   Inner-Iter.     Column Row Layer    Maximum-Head-Change  Column Row Layer    Maximum-Flux-Residual          L2-NORM 
          0                 1           2             4    8     1       0.9311319345E+00       4    8    1         0.4946325325E+02      0.9701018710E+02
          0                 2           2             4    8     1       0.3790713432E+00       4    8    1         0.2038715709E+02      0.3122367502E+02
          0                 3           2             4    8     1       0.2115473910E+00       4    8    1         0.1134915653E+02      0.1806908256E+02
          0                 4           2             5    7     1       0.1060565133E+00       5    7    1         0.5728715387E+01      0.9048422812E+01
          0                 5           2             5    7     1       0.6279452238E-01       5    7    1         0.3392466393E+01      0.5113876379E+01
          0                 6           2             5    7     1       0.3717758140E-01       5    7    1         0.2008585285E+01      0.3002138719E+01
          0                 7           2             5    7     1       0.2201148740E-01       5    7    1         0.1189183077E+01      0.1779099425E+01
          0                 8           2             5    7     1       0.1303327331E-01       5    7    1         0.7040761364E+00      0.1056503039E+01
          0                 9           2             5    7     1       0.7718051460E-02       5    7    1         0.4168981155E+00      0.6277120712E+00
          0                10           2             5    7     1       0.4571075547E-02       5    7    1         0.2468833790E+00      0.3729942765E+00
                                                   Max.-Head-Change                         Max.-Flux-Residual
  Residual-Control   Outer-Iter.   Inner-Iter.     Column Row Layer    Maximum-Head-Change  Column Row Layer    Maximum-Flux-Residual          L2-NORM 
          0                11           2             5    7     1       0.2707622530E-02       5    7    1         0.1462214305E+00      0.2216463396E+00
          0                12           2             5    7     1       0.1604046733E-02       5    7    1         0.8661426074E-01      0.1317133557E+00
          0                13           2             5    7     1       0.9503948761E-03       5    7    1         0.5131294028E-01      0.7827253952E-01
          0                14           2             5    7     1       0.5631806372E-03       5    7    1         0.3040341581E-01      0.4651569064E-01
          0                15           2             5    7     1       0.3337690071E-03       5    7    1         0.1801665484E-01      0.2764393280E-01
          0                16           2             5    7     1       0.1978321885E-03       5    7    1         0.1067776390E-01      0.1642896304E-01
          0                17           2             5    7     1       0.1172731346E-03       5    7    1         0.6329054388E-02      0.9764050050E-02
          0                18           1             5    7     1       0.6952624699E-04       5    7    1         0.3751869086E-02      0.5803084206E-02

    ------------------------------------------------
       NWT REQUIRED           18 OUTER ITERATIONS 
       AND A TOTAL OF         35 INNER ITERATIONS.
    ------------------------------------------------

 NO OUTPUT CONTROL FOR STRESS PERIOD   33   TIME STEP   29
 
 SOLVING FOR HEAD 
                                                   Max.-Head-Change                         Max.-Flux-Residual
  Residual-Control   Outer-Iter.   Inner-Iter.     Column Row Layer    Maximum-Head-Change  Column Row Layer    Maximum-Flux-Residual          L2-NORM 
          0                 1           2             4    6     1       0.1587156145E+01       4    6    1         0.8505084858E+02      0.1380675891E+03
          0                 2           2             4    8     1      -0.1764538637E+01       4    8    1        -0.9662653573E+02      0.1969059532E+03
          0                 3           2             5    8     1      -0.5977035738E+00       5    8    1        -0.3367281069E+02      0.5993822499E+02
          0                 4           2             5    8     1      -0.3524618090E+00       5    8    1        -0.1999436457E+02      0.2924281803E+02
          0                 5           2             5    8     1      -0.2076066747E+00       5    8    1        -0.1177437904E+02      0.1634812030E+02
          0                 6           2             5    8     1      -0.1223133860E+00       5    8    1        -0.6937628674E+01      0.9544243999E+01
          0                 7           2             5    8     1      -0.7205913821E-01       5    8    1        -0.4087244647E+01      0.5639345849E+01
          0                 8           2             5    8     1      -0.4245159456E-01       5    8    1        -0.2407887308E+01      0.3342693228E+01
          0                 9           2             5    8     1      -0.2500878413E-01       5    8    1        -0.1418510727E+01      0.1983017906E+01
          0                10           2             4    6     1      -0.1479183814E-01       5    8    1        -0.8356480676E+00      0.1176700423E+01
                                                   Max.-Head-Change                         Max.-Flux-Residual
  Residual-Control   Outer-Iter.   Inner-Iter.     Column Row Layer    Maximum-Head-Change  Column Row Layer    Maximum-Flux-Residual          L2-NORM 
          0                11           2             4    6     1      -0.8844348400E-02       4    6    1        -0.4950428877E+00      0.6983234459E+00
          0                12           2             4    6     1      -0.5287827652E-02       4    6    1        -0.2959878729E+00      0.4144654813E+00
          0                13           2             4    6     1      -0.3161337745E-02       4    6    1        -0.1769601909E+00      0.2460145939E+00
          0                14           2             4    6     1      -0.1889966034E-02       4    6    1        -0.1057939521E+00      0.1460411759E+00
          0                15           2             4    6     1      -0.1129874851E-02       4    6    1        -0.6324647801E-01      0.8670270395E-01
          0                16           2             4    6     1      -0.6754634188E-03       4    6    1        -0.3780989533E-01      0.5147938506E-01
          0                17           2             4    6     1      -0.4038029118E-03       4    6    1        -0.2260320118E-01      0.3056874974E-01
          0                18           2             4    6     1      -0.2413980054E-03       4    6    1        -0.1351234265E-01      0.1815372174E-01
          0                19           2             4    6     1      -0.1443094525E-03       4    6    1        -0.8077705576E-02      0.1078194949E-01
          0                20           1             4    6     1      -0.8626862652E-04       4    6    1        -0.4828834139E-02      0.6404311108E-02

    ------------------------------------------------
       NWT REQUIRED           20 OUTER ITERATIONS 
       AND A TOTAL OF         39 INNER ITERATIONS.
    ------------------------------------------------

 NO OUTPUT CONTROL FOR STRESS PERIOD   33   TIME STEP   30



 STREAM LISTING     PERIOD     33   STEP       30

 LAYER ROW COL. STREAM  RCH.  FLOW INTO     FLOW TO   FLOW OUT OF   OVRLND.     DIRECT     STREAM       STREAM     STREAM     STREAM   STREAMBED  STREAMBED
                SEG.NO.  NO.  STRM. RCH.    AQUIFER    STRM. RCH.    RUNOFF     PRECIP       ET          HEAD       DEPTH      WIDTH   CONDCTNC.   GRADIENT

   1    1    1     1     1    4.5749E+01  3.2289E-01   4.5426E+01  0.000E+00  0.000E+00  0.000E+00  1.09442E+03  1.372E+00  1.641E+01  7.386E-02  1.457E+00
   1    2    2     1     2    4.5426E+01  5.0022E-01   4.4925E+01  0.000E+00  0.000E+00  0.000E+00  1.08943E+03  1.369E+00  1.636E+01  1.145E-01  1.456E+00
   1    3    3     1     3    4.4925E+01  4.2678E-01   4.4499E+01  0.000E+00  0.000E+00  0.000E+00  1.08378E+03  1.366E+00  1.629E+01  9.776E-02  1.455E+00
   1    3    4     1     4    4.4499E+01  3.9314E-01   4.4106E+01  0.000E+00  0.000E+00  0.000E+00  1.07877E+03  1.363E+00  1.624E+01  9.011E-02  1.454E+00
   1    4    5     2     1    4.2106E+01  3.6245E-01   4.1743E+01  0.000E+00  0.000E+00  0.000E+00  1.07358E+03  1.647E+00  1.200E+01  7.800E-02  1.549E+00
   1    5    6     2     2    4.1743E+01  2.7835E-01   4.1465E+01  0.000E+00  0.000E+00  0.000E+00  1.06815E+03  1.639E+00  1.200E+01  6.000E-02  1.546E+00
   1    6    6     2     3    4.1465E+01  2.7796E-01   4.1187E+01  0.000E+00  0.000E+00  0.000E+00  1.06343E+03  1.633E+00  1.200E+01  6.000E-02  1.544E+00
   1    7    6     2     4    4.1187E+01  2.7756E-01   4.0909E+01  0.000E+00  0.000E+00  0.000E+00  1.05870E+03  1.626E+00  1.200E+01  6.000E-02  1.542E+00
   1    8    6     2     5    4.0909E+01  2.7716E-01   4.0632E+01  0.000E+00  0.000E+00  0.000E+00  1.05398E+03  1.619E+00  1.200E+01  6.000E-02  1.540E+00
   1    3    5     3     1    2.0000E+00  2.8252E-01   1.7175E+00  0.000E+00  0.000E+00  0.000E+00  1.07555E+03  1.909E+00  9.636E+00  7.227E-02  1.955E+00
   1    3    6     3     2    1.7175E+00  2.4905E-01   1.4684E+00  0.000E+00  0.000E+00  0.000E+00  1.07264E+03  1.727E+00  8.909E+00  6.682E-02  1.864E+00
   1    3    7     3     3    1.4684E+00  1.9718E-01   1.2712E+00  0.000E+00  0.000E+00  0.000E+00  1.06987E+03  1.555E+00  8.218E+00  5.547E-02  1.777E+00
   1    4    8     3     4    1.2712E+00  2.2567E-01   1.0456E+00  0.000E+00  0.000E+00  0.000E+00  1.06682E+03  1.364E+00  7.455E+00  6.709E-02  1.682E+00
   1    5    8     3     5    1.0456E+00  1.5790E-01   8.8768E-01  0.000E+00  0.000E+00  0.000E+00  1.06362E+03  1.164E+00  6.655E+00  4.991E-02  1.582E+00
   1    6    8     3     6    8.8768E-01  5.5980E-02   8.3170E-01  0.000E+00  0.000E+00  0.000E+00  1.06158E+03  1.036E+00  6.145E+00  1.844E-02  1.518E+00
   1    5   10     4     1    1.0000E+01  9.0919E-02   9.9091E+00  0.000E+00  0.000E+00  0.000E+00  1.07836E+03  6.368E-01  1.000E+01  2.500E-02  1.212E+00
   1    5    9     4     2    9.9091E+00  1.8158E-01   9.7275E+00  0.000E+00  0.000E+00  0.000E+00  1.07154E+03  6.315E-01  1.000E+01  5.000E-02  1.211E+00
   1    6    8     4     3    9.7275E+00  1.2689E-01   9.6006E+00  0.000E+00  0.000E+00  0.000E+00  1.06381E+03  6.256E-01  1.000E+01  3.500E-02  1.209E+00
   1    6    8     5     1    1.0432E+01  2.2686E-01   1.0205E+01  0.000E+00  0.000E+00  0.000E+00  1.05868E+03  6.790E-01  1.542E+01  6.166E-02  1.226E+00
   1    7    7     5     2    1.0205E+01  2.7894E-01   9.9265E+00  0.000E+00  0.000E+00  0.000E+00  1.05417E+03  6.732E-01  1.519E+01  7.594E-02  1.224E+00
   1    8    7     5     3    9.9265E+00  1.9221E-01   9.7343E+00  0.000E+00  0.000E+00  0.000E+00  1.04992E+03  6.676E-01  1.497E+01  5.241E-02  1.223E+00
   1    8    6     5     4    9.7343E+00  1.3577E-01   9.5985E+00  0.000E+00  0.000E+00  0.000E+00  1.04691E+03  6.637E-01  1.482E+01  3.706E-02  1.221E+00
   1    9    6     6     1    9.5985E+00  2.2097E-01   9.3776E+00  0.000E+00  0.000E+00  0.000E+00  1.04341E+03  6.828E-01  1.200E+01  6.000E-02  1.228E+00
   1   10    7     6     2    9.3776E+00  2.2039E-01   9.1572E+00  0.000E+00  0.000E+00  0.000E+00  1.03885E+03  6.732E-01  1.200E+01  6.000E-02  1.224E+00
   1   11    7     6     3    9.1572E+00  2.1981E-01   8.9374E+00  0.000E+00  0.000E+00  0.000E+00  1.03430E+03  6.636E-01  1.200E+01  6.000E-02  1.221E+00
   1   12    7     6     4    8.9374E+00  2.1923E-01   8.7181E+00  0.000E+00  0.000E+00  0.000E+00  1.02974E+03  6.539E-01  1.200E+01  6.000E-02  1.218E+00
   1   13    7     6     5    8.7181E+00 -4.9568E-02   8.7677E+00  0.000E+00  0.000E+00  0.000E+00  1.02656E+03  6.501E-01  1.200E+01  2.400E-01 -6.884E-02
   1   14    9     7     1    1.5000E+02  1.3669E+00   1.4863E+02  0.000E+00  0.000E+00  0.000E+00  1.03987E+03  2.288E+00  5.529E+01  5.593E-01  8.147E-01
   1   13    8     7     2    1.4863E+02  1.9343E+00   1.4670E+02  0.000E+00  0.000E+00  0.000E+00  1.03478E+03  2.279E+00  5.525E+01  6.148E-01  1.049E+00
   1   13    7     7     3    1.4670E+02  1.6322E+00   1.4507E+02  0.000E+00  0.000E+00  0.000E+00  1.02969E+03  2.269E+00  5.521E+01  5.584E-01  9.743E-01
   1   13    6     8     1    1.5383E+02  9.8323E-01   1.5285E+02  0.000E+00  0.000E+00  0.000E+00  1.02472E+03  2.840E+00  4.118E+01  4.197E-01  7.810E-01
   1   13    5     8     2    1.5285E+02  2.4789E-01   1.5260E+02  0.000E+00  0.000E+00  0.000E+00  1.01846E+03  2.836E+00  4.112E+01  4.190E-01  1.972E-01
   1   13    4     8     3    1.5260E+02 -2.1556E+00   1.5476E+02  0.000E+00  0.000E+00  0.000E+00  1.01222E+03  2.843E+00  4.122E+01  4.200E+00 -1.711E-01
   1   13    3     8     4    1.5476E+02 -3.5181E+00   1.5828E+02  0.000E+00  0.000E+00  0.000E+00  1.00599E+03  2.862E+00  4.150E+01  4.229E+00 -2.773E-01
   1   13    2     8     5    1.5828E+02 -2.5647E+00   1.6084E+02  0.000E+00  0.000E+00  0.000E+00  9.99758E+02  2.883E+00  4.180E+01  4.260E+00 -2.007E-01
   1   13    1     8     6    1.6084E+02 -2.0024E+00   1.6284E+02  0.000E+00  0.000E+00  0.000E+00  9.94773E+02  2.898E+00  4.202E+01  2.569E+00 -2.598E-01
   1    8    6     9     1    4.0632E+01  0.0000E+00   4.0632E+01  0.000E+00  0.000E+00  0.000E+00  1.08401E+03  5.255E+00  4.000E+00  0.000E+00  2.752E+00
   1    8    5     9     2    4.0632E+01  0.0000E+00   4.0632E+01  0.000E+00  0.000E+00  0.000E+00  1.08351E+03  5.255E+00  4.000E+00  0.000E+00  2.752E+00





UNSATURATED ZONE PACKAGE VOLUMETRIC BUDGET FOR  TIME STEP    30 STRESS PERIOD   33
  ------------------------------------------------------------------------------



     CUMULATIVE VOLUMES      L**3       RATES FOR THIS TIME STEP      L**3/T
     ------------------                 ------------------------

           IN:                                      IN:
           ---                                      ---
        INFILTRATION =  9456390992.4280          INFILTRATION =         641.4804

          OUT:                                     OUT:
          ----                                     ----
              UZF ET =  1246257851.1623                UZF ET =          49.5675
        UZF RECHARGE =  7457731059.2224          UZF RECHARGE =         147.7527

            IN - OUT =   752402082.0433              IN - OUT =         444.1602

          STORAGE:                                 STORAGE:
          --------                                 --------
      STORAGE CHANGE =   753625156.3364        STORAGE CHANGE =         444.1602

 PERCENT DISCREPANCY IS DIFFERENCE BETWEEN IN-OUT MINUS CHANGE IN STORAGE
 DIVIDED BY THE AVERAGE OF IN AND OUT TIMES 100

 PERCENT DISCREPANCY =          -0.00     PERCENT DISCREPANCY =           0.00






1
  VOLUMETRIC BUDGET FOR AGRICULTURAL FIELDS AT  END OF TIME STEP   30, STRESS PERIOD  33
  ------------------------------------------------------------------------------

     CUMULATIVE VOLUMES      L**3       RATES FOR THIS TIME STEP      L**3/T
     ------------------                 ------------------------

           IN:                                      IN:
           ---                                      ---
               AG WELLS  =  8459366912.0000                 AG WELLS  =         600.0000
      DIVERSION SEGMENTS =   925638848.0000        DIVERSION SEGMENTS =          40.6321
       IRRIGATION PONDS  =           0.0000         IRRIGATION PONDS  =           0.0000
           GW IRRIGATION =           0.0000             GW IRRIGATION =           0.0000
           SW IRRIGATION =           0.0000             SW IRRIGATION =           0.0000
        SYSTEM LOSSES GW =           0.0000          SYSTEM LOSSES GW =           0.0000
        SYSTEM LOSSES SW =           0.0000          SYSTEM LOSSES SW =           0.0000

                TOTAL IN =  9385006080.0000                  TOTAL IN =         640.6321

          OUT:                                     OUT:
          ----                                     ----
               AG WELLS  =           0.0000                 AG WELLS  =           0.0000
      DIVERSION SEGMENTS =           0.0000        DIVERSION SEGMENTS =           0.0000
       IRRIGATION PONDS  =           0.0000         IRRIGATION PONDS  =           0.0000
           GW IRRIGATION =  8459366912.0000             GW IRRIGATION =         600.0000
           SW IRRIGATION =   925656128.0000             SW IRRIGATION =          40.6329
        SYSTEM LOSSES GW =           0.0000          SYSTEM LOSSES GW =           0.0000
        SYSTEM LOSSES SW =           0.0000          SYSTEM LOSSES SW =           0.0000

               TOTAL OUT =  9385023488.0000                 TOTAL OUT =         640.6329

                IN - OUT =      -17408.0000                  IN - OUT =      -8.5449E-04

     PERCENT DISCREPANCY =          -0.00         PERCENT DISCREPANCY =          -0.00



1
  VOLUMETRIC BUDGET FOR ENTIRE MODEL AT END OF TIME STEP   30, STRESS PERIOD  33
  ------------------------------------------------------------------------------

     CUMULATIVE VOLUMES      L**3       RATES FOR THIS TIME STEP      L**3/T
     ------------------                 ------------------------

           IN:                                      IN:
           ---                                      ---
             STORAGE     =  6778915328.0000               STORAGE     =         459.7057
       CONSTANT HEAD     =           0.0000         CONSTANT HEAD     =           0.0000
     HEAD DEP BOUNDS     =    24130546.0000       HEAD DEP BOUNDS     =           0.2879
      STREAM LEAKAGE     =  1037516928.0000        STREAM LEAKAGE     =          12.5629
        UZF RECHARGE     =  7457731584.0000          UZF RECHARGE     =         147.7527
               GW ET     =           0.0000                 GW ET     =           0.0000
     SURFACE LEAKAGE     =           0.0000       SURFACE LEAKAGE     =           0.0000
           AG WELLS      =           0.0000             AG WELLS      =           0.0000

                TOTAL IN = 15298293760.0000                  TOTAL IN =         620.3092

          OUT:                                     OUT:
          ----                                     ----
             STORAGE     =  5944730112.0000               STORAGE     =           9.7374
       CONSTANT HEAD     =           0.0000         CONSTANT HEAD     =           0.0000
     HEAD DEP BOUNDS     =    24482120.0000       HEAD DEP BOUNDS     =           0.2870
      STREAM LEAKAGE     =   868204736.0000        STREAM LEAKAGE     =          10.2903
        UZF RECHARGE     =           0.0000          UZF RECHARGE     =           0.0000
               GW ET     =     1409387.3750                 GW ET     =           0.0000
     SURFACE LEAKAGE     =           0.0000       SURFACE LEAKAGE     =           0.0000
           AG WELLS      =  8459366912.0000             AG WELLS      =         600.0000

               TOTAL OUT = 15298193408.0000                 TOTAL OUT =         620.3146

                IN - OUT =      100352.0000                  IN - OUT =      -5.4321E-03

     PERCENT DISCREPANCY =           0.00         PERCENT DISCREPANCY =          -0.00






         TIME SUMMARY AT END OF TIME STEP   30 IN STRESS PERIOD   33
                    SECONDS     MINUTES      HOURS       DAYS        YEARS
                    -----------------------------------------------------------
   TIME STEP LENGTH  87667.      1461.1      24.352      1.0147     2.77799E-03
 STRESS PERIOD TIME 2.63000E+06  43833.      730.56      30.440     8.33397E-02
         TOTAL TIME 8.42463E+07 1.40410E+06  23402.      975.07      2.6696    
1
1
                            STRESS PERIOD NO.   34, LENGTH =   2630000.    
                            -----------------------------------------------

                              NUMBER OF TIME STEPS =    30

                               MULTIPLIER FOR DELT =     1.000

                            INITIAL TIME STEP SIZE =   87666.66    

 REUSING NON-PARAMETER GHB CELLS FROM LAST STRESS PERIOD

      2 GHB CELLS

 REUSING STREAM SEGMENT DATA FROM LAST STRESS PERIOD



            AREAL INFILTRATION RATE
 READING ON UNIT   19 WITH FORMAT: (FREE)              

            1           2           3           4           5           6           7           8           9          10
 ........................................................................................................................
   1   1.0000E-10  2.0000E-10   0.000       0.000       0.000       0.000       0.000       0.000       0.000       0.000    
   2   2.0000E-10  1.0000E-10  2.0000E-10   0.000       0.000      8.0000E-10  8.0000E-10  5.0000E-10   0.000       0.000    
   3    0.000      5.0000E-10  1.0000E-10  1.0000E-10  8.0000E-10  8.0000E-10  5.0000E-10  5.0000E-10   0.000       0.000    
   4   8.0000E-10  5.0000E-10  1.0000E-10  1.0000E-10  1.0000E-10  1.0000E-10  1.0000E-10  1.0000E-10  2.0000E-10   0.000    
   5   8.0000E-10  5.0000E-10  1.0000E-10  1.0000E-10  1.0000E-10  1.0000E-10  1.0000E-10  1.0000E-10  1.0000E-10  1.0000E-10
   6   8.0000E-10  5.0000E-10  5.0000E-10  2.0000E-10  2.0000E-10  1.0000E-10  1.0000E-10  1.0000E-10  1.0000E-10  5.0000E-10
   7   8.0000E-10  5.0000E-10  5.0000E-10  2.0000E-10  2.0000E-10  1.0000E-10  1.0000E-10  2.0000E-10  2.0000E-10   0.000    
   8    0.000      5.0000E-10  5.0000E-10  2.0000E-10  2.0000E-10  1.0000E-10  1.0000E-10  2.0000E-10  5.0000E-10   0.000    
   9    0.000      5.0000E-10  5.0000E-10  2.0000E-10  2.0000E-10  1.0000E-10  1.0000E-10  2.0000E-10  5.0000E-10   0.000    
  10    0.000      5.0000E-10  5.0000E-10  2.0000E-10  2.0000E-10  1.0000E-10  1.0000E-10  2.0000E-10  5.0000E-10  8.0000E-10
  11    0.000      1.0000E-10  1.0000E-10  1.0000E-10  1.0000E-10  1.0000E-10  1.0000E-10  2.0000E-10  5.0000E-10   0.000    
  12   1.0000E-10  1.0000E-10  1.0000E-10  1.0000E-10  1.0000E-10  1.0000E-10  1.0000E-10  1.0000E-10  2.0000E-10   0.000    
  13   1.0000E-10  1.0000E-10  2.0000E-10  2.0000E-10  2.0000E-10  2.0000E-10  2.0000E-10  1.0000E-10  1.0000E-10   0.000    
  14    0.000      2.0000E-10  5.0000E-10  5.0000E-10  5.0000E-10  5.0000E-10  5.0000E-10  2.0000E-10  1.0000E-10   0.000    
  15    0.000       0.000      8.0000E-10  8.0000E-10  8.0000E-10  8.0000E-10   0.000       0.000       0.000       0.000    

                  ET RATE =  7.500000E-08

 USING ET EXTINCTION DEPTH FROM PREVIOUS STRESS PERIOD. CURRENT PERIOD IS:      34

 USING EXTINCTION WATER CONTENT FROM PREVIOUS STRESS PERIOD. CURRENT PERIOD IS:      34

 USING AIR ENTRY PRESSURE FROM PREVIOUS STRESS PERIOD. CURRENT PERIOD IS:      34

 USING ROOT PRESSURE HEAD FROM PREVIOUS STRESS PERIOD. CURRENT PERIOD IS:      34

 USING ROOT ACTIVITY FROM PREVIOUS STRESS PERIOD. CURRENT PERIOD IS:      34

 PROCESSING AG STRESS PERIOD DATA

 READING AG STRESS PERIOD DATA

 READING IRRIGATION SEGMENT

 READING IRRIGATION WELL

 READING SUPPLEMENTAL WELL

 NO IRRPOND OR REUSING IRRPOND DATA FROM LAST STRESS PERIOD

 END PROCESSING AG STRESS PERIOD DATA OPTIONS
 
 SOLVING FOR HEAD 
                                                   Max.-Head-Change                         Max.-Flux-Residual
  Residual-Control   Outer-Iter.   Inner-Iter.     Column Row Layer    Maximum-Head-Change  Column Row Layer    Maximum-Flux-Residual          L2-NORM 
          0                 1           2             4    8     1       0.8972122600E+00       4    8    1         0.4762114448E+02      0.9706501491E+02
          0                 2           2             4    8     1       0.5028919327E+00       4    8    1         0.2690639905E+02      0.4677235402E+02
          0                 3           2             4    8     1       0.3338501804E+00       4    8    1         0.1784747450E+02      0.3126497858E+02
          0                 4           2             5    7     1       0.1812917515E+00       5    7    1         0.9759439817E+01      0.1592589186E+02
          0                 5           2             5    7     1       0.1076602086E+00       5    7    1         0.5802302550E+01      0.9050290478E+01
          0                 6           2             5    7     1       0.6388757607E-01       5    7    1         0.3445069171E+01      0.5319223053E+01
          0                 7           2             5    7     1       0.3789949412E-01       5    7    1         0.2044193486E+01      0.3152419652E+01
          0                 8           2             5    7     1       0.2247977082E-01       5    7    1         0.1212614042E+01      0.1871832976E+01
          0                 9           2             5    7     1       0.1333321347E-01       5    7    1         0.7192418314E+00      0.1111904509E+01
          0                10           2             5    7     1       0.7908309740E-02       5    7    1         0.4265961116E+00      0.6605504269E+00
                                                   Max.-Head-Change                         Max.-Flux-Residual
  Residual-Control   Outer-Iter.   Inner-Iter.     Column Row Layer    Maximum-Head-Change  Column Row Layer    Maximum-Flux-Residual          L2-NORM 
          0                11           2             5    7     1       0.4690820738E-02       5    7    1         0.2530272169E+00      0.3924254413E+00
          0                12           2             5    7     1       0.2782500387E-02       5    7    1         0.1500842463E+00      0.2331410265E+00
          0                13           2             5    7     1       0.1650611903E-02       5    7    1         0.8902761741E-01      0.1385133611E+00
          0                14           2             5    7     1       0.9792165939E-03       5    7    1         0.5281264882E-01      0.8229564216E-01
          0                15           2             5    7     1       0.5809471448E-03       5    7    1         0.3133107208E-01      0.4889612410E-01
          0                16           2             5    7     1       0.3446816921E-03       5    7    1         0.1858816859E-01      0.2905255242E-01
          0                17           2             5    7     1       0.2045140058E-03       5    7    1         0.1102863146E-01      0.1726259368E-01
          0                18           2             5    7     1       0.1213530170E-03       5    7    1         0.6543796925E-02      0.1025744602E-01
          0                19           1             5    7     1       0.7201123064E-04       5    7    1         0.3882939268E-02      0.6095135655E-02

    ------------------------------------------------
       NWT REQUIRED           19 OUTER ITERATIONS 
       AND A TOTAL OF         37 INNER ITERATIONS.
    ------------------------------------------------

 NO OUTPUT CONTROL FOR STRESS PERIOD   34   TIME STEP    1
 
 SOLVING FOR HEAD 
                                                   Max.-Head-Change                         Max.-Flux-Residual
  Residual-Control   Outer-Iter.   Inner-Iter.     Column Row Layer    Maximum-Head-Change  Column Row Layer    Maximum-Flux-Residual          L2-NORM 
          0                 1           2             4    6     1       0.1636661407E+01       4    6    1         0.8789960035E+02      0.1378583698E+03
          0                 2           2             5    8     1       0.8330574410E+00       5    8    1         0.4591199984E+02      0.6612182760E+02
          0                 3           2             5    8     1       0.2374066705E+00       5    8    1         0.1304005204E+02      0.1937344914E+02
          0                 4           2             5    8     1       0.6797525549E-01       5    8    1         0.3714216389E+01      0.5940857450E+01
          0                 5           2             4    8     1       0.2453924677E-01       4    8    1         0.1313503501E+01      0.2082821662E+01
          0                 6           2             4    8     1       0.1456656085E-01       4    8    1         0.7861388701E+00      0.9191670756E+00
          0                 7           2             4    8     1       0.8600695124E-02       4    8    1         0.4660107092E+00      0.4873928202E+00
          0                 8           2             4    8     1       0.5065018273E-02       4    8    1         0.2749678594E+00      0.2785015480E+00
          0                 9           2             4    8     1       0.2979029861E-02       4    8    1         0.1618778055E+00      0.1625318492E+00
          0                10           2             4    8     1       0.1751040170E-02       4    8    1         0.9519438003E-01      0.9534322670E-01
                                                   Max.-Head-Change                         Max.-Flux-Residual
  Residual-Control   Outer-Iter.   Inner-Iter.     Column Row Layer    Maximum-Head-Change  Column Row Layer    Maximum-Flux-Residual          L2-NORM 
          0                11           2             4    8     1       0.1028922813E-02       4    8    1         0.5594974797E-01      0.5599458527E-01
          0                12           2             4    8     1       0.6045092186E-03       4    8    1         0.3287515546E-01      0.3289284434E-01
          0                13           2             4    8     1       0.3551322345E-03       4    8    1         0.1931432497E-01      0.1932274080E-01
          0                14           2             4    8     1       0.2086223872E-03       4    8    1         0.1134651609E-01      0.1135096319E-01
          0                15           2             4    8     1       0.1225529041E-03       4    8    1         0.6665477753E-02      0.6667956685E-02
          0                16           1             4    8     1       0.7199167408E-04       4    8    1         0.3915551648E-02      0.3916970554E-02

    ------------------------------------------------
       NWT REQUIRED           16 OUTER ITERATIONS 
       AND A TOTAL OF         31 INNER ITERATIONS.
    ------------------------------------------------

 NO OUTPUT CONTROL FOR STRESS PERIOD   34   TIME STEP    2
 
 SOLVING FOR HEAD 
                                                   Max.-Head-Change                         Max.-Flux-Residual
  Residual-Control   Outer-Iter.   Inner-Iter.     Column Row Layer    Maximum-Head-Change  Column Row Layer    Maximum-Flux-Residual          L2-NORM 
          0                 1           2             5    7     1       0.1927176509E+01       5    7    1         0.1039214950E+03      0.1781314826E+03
          0                 2           2             4    7     1       0.8942461485E+00       4    7    1         0.4767179386E+02      0.7919883657E+02
          0                 3           2             5    6     1       0.3534851214E+00       5    6    1         0.1927132325E+02      0.2927533327E+02
          0                 4           2             4    6     1       0.1090622597E+00       4    6    1         0.5806808640E+01      0.1048775666E+02
          0                 5           2             4    6     1       0.6484360048E-01       4    6    1         0.3496956494E+01      0.4720640260E+01
          0                 6           2             4    6     1       0.3823641465E-01       4    6    1         0.2074694790E+01      0.2516281970E+01
          0                 7           2             4    6     1       0.2245694933E-01       4    6    1         0.1222128610E+01      0.1432708708E+01
          0                 8           2             4    6     1       0.1316357994E-01       4    6    1         0.7174178090E+00      0.8308291149E+00
          0                 9           2             4    6     1       0.7708643979E-02       4    6    1         0.4204243067E+00      0.4839341072E+00
          0                10           2             4    6     1       0.4512061702E-02       4    6    1         0.2461721678E+00      0.2821543986E+00
                                                   Max.-Head-Change                         Max.-Flux-Residual
  Residual-Control   Outer-Iter.   Inner-Iter.     Column Row Layer    Maximum-Head-Change  Column Row Layer    Maximum-Flux-Residual          L2-NORM 
          0                11           2             4    6     1       0.2640399273E-02       4    6    1         0.1440820526E+00      0.1645419894E+00
          0                12           2             4    6     1       0.1544946064E-02       4    6    1         0.8431241733E-01      0.9596030590E-01
          0                13           2             4    6     1       0.9039235922E-03       4    6    1         0.4933201458E-01      0.5596611752E-01
          0                14           2             4    6     1       0.5288560232E-03       4    6    1         0.2886317241E-01      0.3264228727E-01
          0                15           2             4    6     1       0.3094117472E-03       4    6    1         0.1688683283E-01      0.1903973164E-01
          0                16           2             4    6     1       0.1810226280E-03       4    6    1         0.9879767945E-02      0.1110625330E-01
          0                17           1             4    6     1       0.1059076200E-03       4    6    1         0.5780193809E-02      0.6478903929E-02
          0                18           1             4    6     1       0.6196131034E-04       4    6    1         0.3381711255E-02      0.3779748137E-02

    ------------------------------------------------
       NWT REQUIRED           18 OUTER ITERATIONS 
       AND A TOTAL OF         34 INNER ITERATIONS.
    ------------------------------------------------

 NO OUTPUT CONTROL FOR STRESS PERIOD   34   TIME STEP    3
 
 SOLVING FOR HEAD 
                                                   Max.-Head-Change                         Max.-Flux-Residual
  Residual-Control   Outer-Iter.   Inner-Iter.     Column Row Layer    Maximum-Head-Change  Column Row Layer    Maximum-Flux-Residual          L2-NORM 
          0                 1           2             5    8     1       0.1252044826E+01       5    8    1         0.6766537143E+02      0.1112482235E+03
          0                 2           2             4    8     1       0.5749535428E+00       4    8    1         0.3082955096E+02      0.4832261205E+02
          0                 3           2             4    8     1       0.3419602746E+00       4    8    1         0.1841295480E+02      0.2576262629E+02
          0                 4           2             4    8     1       0.2033531050E+00       4    8    1         0.1094751212E+02      0.1488798264E+02
          0                 5           2             4    8     1       0.1208206037E+00       4    8    1         0.6508153473E+01      0.8799749782E+01
          0                 6           2             4    8     1       0.7176979241E-01       4    8    1         0.3866436688E+01      0.5230344557E+01
          0                 7           2             4    8     1       0.4263633927E-01       4    8    1         0.2296709965E+01      0.3114083781E+01
          0                 8           2             4    8     1       0.2533460094E-01       4    8    1         0.1364437558E+01      0.1855646365E+01
          0                 9           2             4    8     1       0.1505808031E-01       4    8    1         0.8107811510E+00      0.1106460733E+01
          0                10           2             4    8     1       0.8952745834E-02       4    8    1         0.4819230354E+00      0.6601180037E+00
                                                   Max.-Head-Change                         Max.-Flux-Residual
  Residual-Control   Outer-Iter.   Inner-Iter.     Column Row Layer    Maximum-Head-Change  Column Row Layer    Maximum-Flux-Residual          L2-NORM 
          0                11           2             4    8     1       0.5324468356E-02       4    8    1         0.2865389820E+00      0.3940316474E+00
          0                12           2             4    8     1       0.3167585197E-02       4    8    1         0.1704210105E+00      0.2353127041E+00
          0                13           2             4    8     1       0.1884991894E-02       4    8    1         0.1013898036E+00      0.1405872316E+00
          0                14           2             4    8     1       0.1122060133E-02       4    8    1         0.6033843625E-01      0.8402626868E-01
          0                15           2             4    8     1       0.6681043174E-03       4    8    1         0.3591854275E-01      0.5023849822E-01
          0                16           2             4    8     1       0.3979146023E-03       4    8    1         0.2138770923E-01      0.3004661709E-01
          0                17           2             4    8     1       0.2370548780E-03       4    8    1         0.1273874632E-01      0.1797538460E-01
          0                18           2             4    8     1       0.1412594030E-03       4    8    1         0.7589303790E-02      0.1075652647E-01
          0                19           1             4    8     1       0.8419600977E-04       4    8    1         0.4522577972E-02      0.6438221609E-02

    ------------------------------------------------
       NWT REQUIRED           19 OUTER ITERATIONS 
       AND A TOTAL OF         37 INNER ITERATIONS.
    ------------------------------------------------

 NO OUTPUT CONTROL FOR STRESS PERIOD   34   TIME STEP    4
 
 SOLVING FOR HEAD 
                                                   Max.-Head-Change                         Max.-Flux-Residual
  Residual-Control   Outer-Iter.   Inner-Iter.     Column Row Layer    Maximum-Head-Change  Column Row Layer    Maximum-Flux-Residual          L2-NORM 
          0                 1           2             5    6     1       0.1463205550E+01       5    6    1         0.7940363752E+02      0.1356106185E+03
          0                 2           2             4    8     1      -0.1782603028E+01       4    8    1        -0.9753746391E+02      0.1970786756E+03
          0                 3           2             5    8     1      -0.7624474053E+00       5    8    1        -0.4272367837E+02      0.7403293384E+02
          0                 4           2             5    8     1      -0.4512361444E+00       5    8    1        -0.2551995229E+02      0.3735762591E+02
          0                 5           2             5    8     1      -0.2664466056E+00       5    8    1        -0.1511054598E+02      0.2099745117E+02
          0                 6           2             4    6     1      -0.1509861389E+00       4    6    1        -0.8450272460E+01      0.9283184878E+01
          0                 7           2             4    6     1      -0.9018573926E-01       4    6    1        -0.5053537971E+01      0.5079615523E+01
          0                 8           2             4    6     1      -0.5382682470E-01       4    6    1        -0.3018018120E+01      0.3023167598E+01
          0                 9           2             4    6     1      -0.3211344466E-01       4    6    1        -0.1801120434E+01      0.1802791405E+01
          0                10           2             4    6     1      -0.1915516109E-01       4    6    1        -0.1074501726E+01      0.1075171837E+01
                                                   Max.-Head-Change                         Max.-Flux-Residual
  Residual-Control   Outer-Iter.   Inner-Iter.     Column Row Layer    Maximum-Head-Change  Column Row Layer    Maximum-Flux-Residual          L2-NORM 
          0                11           2             4    6     1      -0.1142452064E-01       4    6    1        -0.6409003962E+00      0.6412156962E+00
          0                12           2             4    6     1      -0.6813418040E-02       4    6    1        -0.3822358836E+00      0.3824005899E+00
          0                13           2             4    6     1      -0.4063291251E-02       4    6    1        -0.2279551507E+00      0.2280466403E+00
          0                14           2             4    6     1      -0.2423161345E-02       4    6    1        -0.1359422153E+00      0.1359947829E+00
          0                15           2             4    6     1      -0.1445043832E-02       4    6    1        -0.8106834547E-01      0.8109909652E-01
          0                16           2             4    6     1      -0.8617384380E-03       4    6    1        -0.4834403311E-01      0.4836219075E-01
          0                17           2             4    6     1      -0.5138855462E-03       4    6    1        -0.2882905162E-01      0.2883982494E-01
          0                18           2             4    6     1      -0.3064461767E-03       4    6    1        -0.1719152503E-01      0.1719793290E-01
          0                19           2             4    6     1      -0.1827422927E-03       4    6    1        -0.1025168751E-01      0.1025550363E-01
          0                20           2             4    6     1      -0.1089735465E-03       4    6    1        -0.6113267408E-02      0.6115541488E-02
          0                21           1             4    6     1      -0.6498308153E-04       4    6    1        -0.3645428552E-02      0.3646784148E-02

    ------------------------------------------------
       NWT REQUIRED           21 OUTER ITERATIONS 
       AND A TOTAL OF         41 INNER ITERATIONS.
    ------------------------------------------------

 NO OUTPUT CONTROL FOR STRESS PERIOD   34   TIME STEP    5
 
 SOLVING FOR HEAD 
                                                   Max.-Head-Change                         Max.-Flux-Residual
  Residual-Control   Outer-Iter.   Inner-Iter.     Column Row Layer    Maximum-Head-Change  Column Row Layer    Maximum-Flux-Residual          L2-NORM 
          0                 1           2             5    8     1       0.1141641799E+01       5    8    1         0.6183517866E+02      0.1014370333E+03
          0                 2           2             5    7     1       0.3627184777E+00       5    7    1         0.1965805135E+02      0.3652427849E+02
          0                 3           2             5    7     1       0.2483738555E+00       5    7    1         0.1347069325E+02      0.2260085405E+02
          0                 4           2             5    7     1       0.1459441266E+00       5    7    1         0.7938910661E+01      0.1269335227E+02
          0                 5           2             4    8     1       0.8666372340E-01       5    7    1         0.4662622763E+01      0.7458956895E+01
          0                 6           2             4    8     1       0.5170115999E-01       4    8    1         0.2775207654E+01      0.4433191383E+01
          0                 7           2             4    8     1       0.3083971360E-01       4    8    1         0.1655505913E+01      0.2642528018E+01
          0                 8           2             4    8     1       0.1839767822E-01       4    8    1         0.9875020074E+00      0.1576736434E+01
          0                 9           2             4    8     1       0.1097743337E-01       4    8    1         0.5891137365E+00      0.9413515447E+00
          0                10           2             4    8     1       0.6551505037E-02       4    8    1         0.3515202126E+00      0.5622782827E+00
                                                   Max.-Head-Change                         Max.-Flux-Residual
  Residual-Control   Outer-Iter.   Inner-Iter.     Column Row Layer    Maximum-Head-Change  Column Row Layer    Maximum-Flux-Residual          L2-NORM 
          0                11           2             4    8     1       0.3911013829E-02       4    8    1         0.2098001599E+00      0.3359983847E+00
          0                12           2             4    8     1       0.2335315751E-02       4    8    1         0.1252477153E+00      0.2008599479E+00
          0                13           2             4    8     1       0.1394785052E-02       4    8    1         0.7478967264E-01      0.1201169709E+00
          0                14           2             4    8     1       0.8332411186E-03       4    8    1         0.4467025391E-01      0.7185475376E-01
          0                15           2             4    8     1       0.4978880524E-03       4    8    1         0.2668679203E-01      0.4299648044E-01
          0                16           2             4    8     1       0.2975678905E-03       4    8    1         0.1594671782E-01      0.2573497915E-01
          0                17           2             4    8     1       0.1778809974E-03       4    8    1         0.9531011125E-02      0.1540694800E-01
          0                18           1             4    8     1       0.1063550398E-03       4    8    1         0.5697642025E-02      0.9225730448E-02
          0                19           1             4    8     1       0.6360153081E-04       4    8    1         0.3406714471E-02      0.5525438443E-02

    ------------------------------------------------
       NWT REQUIRED           19 OUTER ITERATIONS 
       AND A TOTAL OF         36 INNER ITERATIONS.
    ------------------------------------------------

 NO OUTPUT CONTROL FOR STRESS PERIOD   34   TIME STEP    6
 
 SOLVING FOR HEAD 
                                                   Max.-Head-Change                         Max.-Flux-Residual
  Residual-Control   Outer-Iter.   Inner-Iter.     Column Row Layer    Maximum-Head-Change  Column Row Layer    Maximum-Flux-Residual          L2-NORM 
          0                 1           2             5    6     1       0.1612533671E+01       5    6    1         0.8767475886E+02      0.1303961964E+03
          0                 2           2             4    6     1       0.6987849702E+00       4    6    1         0.3748663388E+02      0.5023418759E+02
          0                 3           2             4    6     1       0.4136825710E+00       4    6    1         0.2237629347E+02      0.2448079264E+02
          0                 4           2             4    6     1       0.2378412142E+00       4    6    1         0.1291730823E+02      0.1327049890E+02
          0                 5           2             4    6     1       0.6881526342E-01       4    6    1         0.3735525770E+01      0.3861254345E+01
          0                 6           2             4    6     1       0.1992514278E-01       4    6    1         0.1081064562E+01      0.1124929847E+01
          0                 7           2             4    6     1       0.5773266470E-02       4    6    1         0.3130775180E+00      0.3281288274E+00
          0                 8           2             4    6     1       0.1673931675E-02       4    6    1         0.9072987239E-01      0.9582230763E-01
          0                 9           2             4    6     1       0.4856736280E-03       4    6    1         0.2631129452E-01      0.2801377331E-01
          0                10           2             4    6     1       0.1410059073E-03       4    6    1         0.7635250340E-02      0.8198593421E-02
          0                11           1             4    6     1       0.4096487217E-04       4    6    1         0.2217119311E-02      0.2401873339E-02

    ------------------------------------------------
       NWT REQUIRED           11 OUTER ITERATIONS 
       AND A TOTAL OF         21 INNER ITERATIONS.
    ------------------------------------------------

 NO OUTPUT CONTROL FOR STRESS PERIOD   34   TIME STEP    7
 
 SOLVING FOR HEAD 
                                                   Max.-Head-Change                         Max.-Flux-Residual
  Residual-Control   Outer-Iter.   Inner-Iter.     Column Row Layer    Maximum-Head-Change  Column Row Layer    Maximum-Flux-Residual          L2-NORM 
          0                 1           2             5    6     1      -0.1818978387E+00       5    6    1        -0.1006513198E+02      0.2438811547E+02
          0                 2           2             4    8     1      -0.1894001485E-01       4    8    1        -0.1009295264E+01      0.2555167351E+01
          0                 3           2             4    7     1      -0.2467616545E-02       4    7    1        -0.1384616008E+00      0.2441951259E+00
          0                 4           2             4    7     1       0.2400311777E-03       4    7    1         0.1372695223E-01      0.1845479164E-01
          0                 5           1             4    7     1      -0.1634523907E-04       4    7    1        -0.9531224214E-03      0.1065369193E-02

    ------------------------------------------------
       NWT REQUIRED            5 OUTER ITERATIONS 
       AND A TOTAL OF          9 INNER ITERATIONS.
    ------------------------------------------------

 NO OUTPUT CONTROL FOR STRESS PERIOD   34   TIME STEP    8
 
 SOLVING FOR HEAD 
                                                   Max.-Head-Change                         Max.-Flux-Residual
  Residual-Control   Outer-Iter.   Inner-Iter.     Column Row Layer    Maximum-Head-Change  Column Row Layer    Maximum-Flux-Residual          L2-NORM 
          0                 1           2             5    6     1      -0.1974980603E+00       5    6    1        -0.1088926189E+02      0.2482985290E+02
          0                 2           2             5    6     1       0.1900323113E-01       5    6    1         0.1088633946E+01      0.2544759650E+01
          0                 3           2             4    7     1       0.1696807214E-02       4    7    1         0.9551966769E-01      0.1917461761E+00
          0                 4           1             4    7     1      -0.1155463278E-03       4    7    1        -0.6661253554E-02      0.9647214355E-02
          0                 5           1             4    7     1       0.4597695093E-05       4    7    1         0.2714486516E-03      0.2944890647E-03

    ------------------------------------------------
       NWT REQUIRED            5 OUTER ITERATIONS 
       AND A TOTAL OF          8 INNER ITERATIONS.
    ------------------------------------------------

 NO OUTPUT CONTROL FOR STRESS PERIOD   34   TIME STEP    9
 
 SOLVING FOR HEAD 
                                                   Max.-Head-Change                         Max.-Flux-Residual
  Residual-Control   Outer-Iter.   Inner-Iter.     Column Row Layer    Maximum-Head-Change  Column Row Layer    Maximum-Flux-Residual          L2-NORM 
          0                 1           2             4    6     1      -0.1896599099E+00       4    6    1        -0.1027718479E+02      0.2401746329E+02
          0                 2           2             4    7     1      -0.1926020457E+01       4    7    1        -0.1007048622E+03      0.2437026749E+03
          0                 3           2             4    7     1       0.1872845420E+00       4    7    1         0.1006666956E+02      0.2437109729E+02
          0                 4           2             4    7     1      -0.1275401852E-01       4    7    1        -0.7047220812E+00      0.1706988523E+01
          0                 5           2             4    7     1       0.5074912770E-03       4    7    1         0.2882364053E-01      0.6986667342E-01
          0                 6           1             4    7     1      -0.6257592309E-05       4    7    1        -0.3652926171E-03      0.8935231324E-03

    ------------------------------------------------
       NWT REQUIRED            6 OUTER ITERATIONS 
       AND A TOTAL OF         11 INNER ITERATIONS.
    ------------------------------------------------

 NO OUTPUT CONTROL FOR STRESS PERIOD   34   TIME STEP   10
 
 SOLVING FOR HEAD 
                                                   Max.-Head-Change                         Max.-Flux-Residual
  Residual-Control   Outer-Iter.   Inner-Iter.     Column Row Layer    Maximum-Head-Change  Column Row Layer    Maximum-Flux-Residual          L2-NORM 
          0                 1           2             4    6     1      -0.1458675714E+00       4    6    1        -0.7898729874E+01      0.1685155329E+02
          0                 2           2             5    8     1      -0.2958331018E-01       5    8    1        -0.1579798964E+01      0.3626161193E+01
          0                 3           2             4    7     1       0.3762436296E-01       5    8    1         0.2033252093E+01      0.4949916079E+01
          0                 4           2             4    7     1      -0.2562104047E-02       5    8    1        -0.1423775982E+00      0.3464617974E+00
          0                 5           1             4    7     1       0.1019483994E-03       5    8    1         0.5824978123E-02      0.1416976523E-01
          0                 6           1             4    7     1      -0.1257068797E-05       5    8    1        -0.7384202718E-04      0.1796273131E-03

    ------------------------------------------------
       NWT REQUIRED            6 OUTER ITERATIONS 
       AND A TOTAL OF         10 INNER ITERATIONS.
    ------------------------------------------------

 NO OUTPUT CONTROL FOR STRESS PERIOD   34   TIME STEP   11
 
 SOLVING FOR HEAD 
                                                   Max.-Head-Change                         Max.-Flux-Residual
  Residual-Control   Outer-Iter.   Inner-Iter.     Column Row Layer    Maximum-Head-Change  Column Row Layer    Maximum-Flux-Residual          L2-NORM 
          0                 1           2             4    6     1      -0.1400164708E+00       4    6    1        -0.7579432751E+01      0.1616297202E+02
          0                 2           2             4    6     1       0.1361811719E-01       4    6    1         0.7578292211E+00      0.1616060293E+01
          0                 3           2             4    6     1      -0.9273595950E-03       4    6    1        -0.5304914730E-01      0.1131170718E+00
          0                 4           1             4    6     1       0.3690042700E-04       4    6    1         0.2169708145E-02      0.4625978016E-02

    ------------------------------------------------
       NWT REQUIRED            4 OUTER ITERATIONS 
       AND A TOTAL OF          7 INNER ITERATIONS.
    ------------------------------------------------

 NO OUTPUT CONTROL FOR STRESS PERIOD   34   TIME STEP   12
 
 SOLVING FOR HEAD 
                                                   Max.-Head-Change                         Max.-Flux-Residual
  Residual-Control   Outer-Iter.   Inner-Iter.     Column Row Layer    Maximum-Head-Change  Column Row Layer    Maximum-Flux-Residual          L2-NORM 
          0                 1           2             4    6     1      -0.1344439209E+00       4    6    1        -0.7275403875E+01      0.1551064370E+02
          0                 2           2             4    6     1       0.1307620107E-01       4    6    1         0.7274359793E+00      0.1550851485E+01
          0                 3           2             4    6     1      -0.8904557357E-03       4    6    1        -0.5092152811E-01      0.1085533482E+00
          0                 4           1             4    6     1       0.3543199426E-04       4    6    1         0.2082688829E-02      0.4439351659E-02

    ------------------------------------------------
       NWT REQUIRED            4 OUTER ITERATIONS 
       AND A TOTAL OF          7 INNER ITERATIONS.
    ------------------------------------------------

 NO OUTPUT CONTROL FOR STRESS PERIOD   34   TIME STEP   13
 
 SOLVING FOR HEAD 
                                                   Max.-Head-Change                         Max.-Flux-Residual
  Residual-Control   Outer-Iter.   Inner-Iter.     Column Row Layer    Maximum-Head-Change  Column Row Layer    Maximum-Flux-Residual          L2-NORM 
          0                 1           2             4    6     1      -0.1291351322E+00       4    6    1        -0.6985832694E+01      0.1489458333E+02
          0                 2           2             4    6     1       0.1255992822E-01       4    6    1         0.6984875965E+00      0.1489266836E+01
          0                 3           2             4    6     1      -0.8552975210E-03       4    6    1        -0.4889501861E-01      0.1042431832E+00
          0                 4           1             4    6     1       0.3403343637E-04       4    6    1         0.1999828705E-02      0.4263199315E-02

    ------------------------------------------------
       NWT REQUIRED            4 OUTER ITERATIONS 
       AND A TOTAL OF          7 INNER ITERATIONS.
    ------------------------------------------------

 NO OUTPUT CONTROL FOR STRESS PERIOD   34   TIME STEP   14
 
 SOLVING FOR HEAD 
                                                   Max.-Head-Change                         Max.-Flux-Residual
  Residual-Control   Outer-Iter.   Inner-Iter.     Column Row Layer    Maximum-Head-Change  Column Row Layer    Maximum-Flux-Residual          L2-NORM 
          0                 1           2             4    6     1      -0.1240766900E+00       4    6    1        -0.6709983275E+01      0.1431236976E+02
          0                 2           2             3    7     1      -0.7501975579E-02       4    5    1        -0.4106537239E+00      0.1034659968E+01
          0                 3           2             5    8     1       0.9752729954E-02       5    8    1         0.5370123101E+00      0.1279398035E+01
          0                 4           2             5    8     1      -0.3092173787E-03       5    8    1        -0.1751788140E-01      0.3999073286E-01
          0                 5           2             4    7     1      -0.9677332291E-03       4    6    1        -0.5350119643E-01      0.1309742609E+00
          0                 6           2             4    7     1       0.1318037688E-02       4    6    1         0.7481426511E-01      0.1840511273E+00
          0                 7           1             4    7     1      -0.1626444624E-04       4    6    1        -0.9501121908E-03      0.2596779802E-02

    ------------------------------------------------
       NWT REQUIRED            7 OUTER ITERATIONS 
       AND A TOTAL OF         13 INNER ITERATIONS.
    ------------------------------------------------

 NO OUTPUT CONTROL FOR STRESS PERIOD   34   TIME STEP   15
 
 SOLVING FOR HEAD 
                                                   Max.-Head-Change                         Max.-Flux-Residual
  Residual-Control   Outer-Iter.   Inner-Iter.     Column Row Layer    Maximum-Head-Change  Column Row Layer    Maximum-Flux-Residual          L2-NORM 
          0                 1           2             4    6     1      -0.1192553565E+00       4    6    1        -0.6447129443E+01      0.1376258840E+02
          0                 2           2             4    7     1      -0.1905994712E+01       5    8    1        -0.9976696342E+02      0.2439407590E+03
          0                 3           2             4    7     1       0.1853416782E+00       5    8    1         0.9963865832E+01      0.2439129137E+02
          0                 4           2             4    7     1      -0.1262166679E-01       5    8    1        -0.6977212651E+00      0.1708407247E+01
          0                 5           2             4    7     1       0.5022251175E-03       5    8    1         0.2854065637E-01      0.6992474210E-01
          0                 6           1             4    7     1      -0.6192657981E-05       5    8    1        -0.3617541026E-03      0.8943886083E-03

    ------------------------------------------------
       NWT REQUIRED            6 OUTER ITERATIONS 
       AND A TOTAL OF         11 INNER ITERATIONS.
    ------------------------------------------------

 NO OUTPUT CONTROL FOR STRESS PERIOD   34   TIME STEP   16
 
 SOLVING FOR HEAD 
                                                   Max.-Head-Change                         Max.-Flux-Residual
  Residual-Control   Outer-Iter.   Inner-Iter.     Column Row Layer    Maximum-Head-Change  Column Row Layer    Maximum-Flux-Residual          L2-NORM 
          0                 1           2             4    6     1      -0.7848959029E-01       4    6    1        -0.4250163448E+01      0.8007763595E+01
          0                 2           2             5    8     1      -0.3535404645E-01       5    8    1        -0.1951742726E+01      0.4189675941E+01
          0                 3           2             4    7     1       0.3776151616E-01       4    8    1         0.2048481312E+01      0.4996962193E+01
          0                 4           2             4    7     1      -0.2571442762E-02       4    8    1        -0.1441564761E+00      0.3308899732E+00
          0                 5           2             4    7     1       0.1023199972E-03       5    7    1         0.5932793691E-02      0.1318581964E-01
          0                 6           1             4    7     1      -0.1261650204E-05       5    7    1        -0.7565669239E-04      0.1680969837E-03

    ------------------------------------------------
       NWT REQUIRED            6 OUTER ITERATIONS 
       AND A TOTAL OF         11 INNER ITERATIONS.
    ------------------------------------------------

 NO OUTPUT CONTROL FOR STRESS PERIOD   34   TIME STEP   17
 
 SOLVING FOR HEAD 
                                                   Max.-Head-Change                         Max.-Flux-Residual
  Residual-Control   Outer-Iter.   Inner-Iter.     Column Row Layer    Maximum-Head-Change  Column Row Layer    Maximum-Flux-Residual          L2-NORM 
          0                 1           2             4    6     1      -0.7534711630E-01       4    6    1        -0.4078323874E+01      0.7736203477E+01
          0                 2           2             4    6     1       0.7328735776E-02       4    6    1         0.4077991475E+00      0.7734478740E+00
          0                 3           2             4    6     1      -0.4990644694E-03       4    6    1        -0.2854626713E-01      0.5412886934E-01
          0                 4           1             4    6     1       0.1985821150E-04       4    6    1         0.1167542492E-02      0.2213071456E-02

    ------------------------------------------------
       NWT REQUIRED            4 OUTER ITERATIONS 
       AND A TOTAL OF          7 INNER ITERATIONS.
    ------------------------------------------------

 NO OUTPUT CONTROL FOR STRESS PERIOD   34   TIME STEP   18
 
 SOLVING FOR HEAD 
                                                   Max.-Head-Change                         Max.-Flux-Residual
  Residual-Control   Outer-Iter.   Inner-Iter.     Column Row Layer    Maximum-Head-Change  Column Row Layer    Maximum-Flux-Residual          L2-NORM 
          0                 1           2             4    6     1      -0.7235944228E-01       4    6    1        -0.3915044325E+01      0.7473780998E+01
          0                 2           2             4    6     1       0.7038157925E-02       4    6    1         0.3914740486E+00      0.7472254782E+00
          0                 3           2             4    6     1      -0.4792767897E-03       4    6    1        -0.2740348260E-01      0.5229480378E-01
          0                 4           1             4    6     1       0.1907084440E-04       4    6    1         0.1120802680E-02      0.2138194834E-02

    ------------------------------------------------
       NWT REQUIRED            4 OUTER ITERATIONS 
       AND A TOTAL OF          7 INNER ITERATIONS.
    ------------------------------------------------

 NO OUTPUT CONTROL FOR STRESS PERIOD   34   TIME STEP   19
 
 SOLVING FOR HEAD 
                                                   Max.-Head-Change                         Max.-Flux-Residual
  Residual-Control   Outer-Iter.   Inner-Iter.     Column Row Layer    Maximum-Head-Change  Column Row Layer    Maximum-Flux-Residual          L2-NORM 
          0                 1           2             4    6     1      -0.6951725429E-01       4    6    1        -0.3759805647E+01      0.7224278559E+01
          0                 2           2             4    6     1       0.6761710292E-02       4    6    1         0.3759518051E+00      0.7222914018E+00
          0                 3           2             4    6     1      -0.4606153391E-03       4    6    1        -0.2632608218E-01      0.5056470253E-01
          0                 4           1             4    6     1       0.1848820595E-04       4    6    1         0.1085940904E-02      0.2081584005E-02

    ------------------------------------------------
       NWT REQUIRED            4 OUTER ITERATIONS 
       AND A TOTAL OF          7 INNER ITERATIONS.
    ------------------------------------------------

 NO OUTPUT CONTROL FOR STRESS PERIOD   34   TIME STEP   20
 
 SOLVING FOR HEAD 
                                                   Max.-Head-Change                         Max.-Flux-Residual
  Residual-Control   Outer-Iter.   Inner-Iter.     Column Row Layer    Maximum-Head-Change  Column Row Layer    Maximum-Flux-Residual          L2-NORM 
          0                 1           2             4    6     1      -0.6681193606E-01       4    6    1        -0.3612125496E+01      0.6986775008E+01
          0                 2           2             4    7     1      -0.1907930462E+01       5    8    1        -0.1000520170E+03      0.2445176762E+03
          0                 3           2             4    7     1       0.1855140489E+00       4    8    1         0.1001501290E+02      0.2325722261E+02
          0                 4           2             4    7     1      -0.1263337623E-01       4    8    1        -0.7037534170E+00      0.1582828697E+01
          0                 5           2             4    7     1       0.5026910913E-03       4    8    1         0.2888475599E-01      0.6401637131E-01
          0                 6           1             4    7     1      -0.6198403782E-05       4    8    1        -0.3673122321E-03      0.8230433534E-03

    ------------------------------------------------
       NWT REQUIRED            6 OUTER ITERATIONS 
       AND A TOTAL OF         11 INNER ITERATIONS.
    ------------------------------------------------

 NO OUTPUT CONTROL FOR STRESS PERIOD   34   TIME STEP   21
 
 SOLVING FOR HEAD 
                                                   Max.-Head-Change                         Max.-Flux-Residual
  Residual-Control   Outer-Iter.   Inner-Iter.     Column Row Layer    Maximum-Head-Change  Column Row Layer    Maximum-Flux-Residual          L2-NORM 
          0                 1           2             5    8     1       0.6088143254E-01       5    8    1         0.3366467502E+01      0.5642363533E+01
          0                 2           2             5    8     1      -0.4000942747E-01       5    8    1        -0.2211656550E+01      0.4710483439E+01
          0                 3           2             4    7     1       0.3794524702E-01       4    6    1         0.2047949247E+01      0.4976284802E+01
          0                 4           2             4    7     1      -0.2583954611E-02       4    7    1        -0.1444213727E+00      0.2629902930E+00
          0                 5           2             4    7     1       0.1028176910E-03       4    7    1         0.5974634670E-02      0.8718470711E-02
          0                 6           1             4    7     1      -0.1267787385E-05       4    7    1        -0.7655066429E-04      0.1133587377E-03

    ------------------------------------------------
       NWT REQUIRED            6 OUTER ITERATIONS 
       AND A TOTAL OF         11 INNER ITERATIONS.
    ------------------------------------------------

 NO OUTPUT CONTROL FOR STRESS PERIOD   34   TIME STEP   22
 
 SOLVING FOR HEAD 
                                                   Max.-Head-Change                         Max.-Flux-Residual
  Residual-Control   Outer-Iter.   Inner-Iter.     Column Row Layer    Maximum-Head-Change  Column Row Layer    Maximum-Flux-Residual          L2-NORM 
          0                 1           2             5    8     1       0.5725894415E-01       5    8    1         0.3163757135E+01      0.5325228666E+01
          0                 2           2             5    8     1      -0.5569856796E-02       5    8    1        -0.3163844708E+00      0.5323516597E+00
          0                 3           2             5    8     1       0.3792853974E-03       5    8    1         0.2214683966E-01      0.3724913397E-01
          0                 4           1             5    8     1      -0.1509212618E-04       5    8    1        -0.9058073933E-03      0.1522534426E-02

    ------------------------------------------------
       NWT REQUIRED            4 OUTER ITERATIONS 
       AND A TOTAL OF          7 INNER ITERATIONS.
    ------------------------------------------------

 NO OUTPUT CONTROL FOR STRESS PERIOD   34   TIME STEP   23
 
 SOLVING FOR HEAD 
                                                   Max.-Head-Change                         Max.-Flux-Residual
  Residual-Control   Outer-Iter.   Inner-Iter.     Column Row Layer    Maximum-Head-Change  Column Row Layer    Maximum-Flux-Residual          L2-NORM 
          0                 1           2             5    8     1       0.5389326764E-01       5    8    1         0.2975519006E+01      0.5027475616E+01
          0                 2           2             5    8     1      -0.5242455448E-02       5    8    1        -0.2975597427E+00      0.5026191555E+00
          0                 3           2             5    8     1       0.3569907068E-03       5    8    1         0.2082911688E-01      0.3516947651E-01
          0                 4           1             5    8     1      -0.1420499894E-04       5    8    1        -0.8519124085E-03      0.1437633696E-02

    ------------------------------------------------
       NWT REQUIRED            4 OUTER ITERATIONS 
       AND A TOTAL OF          7 INNER ITERATIONS.
    ------------------------------------------------

 NO OUTPUT CONTROL FOR STRESS PERIOD   34   TIME STEP   24
 
 SOLVING FOR HEAD 
                                                   Max.-Head-Change                         Max.-Flux-Residual
  Residual-Control   Outer-Iter.   Inner-Iter.     Column Row Layer    Maximum-Head-Change  Column Row Layer    Maximum-Flux-Residual          L2-NORM 
          0                 1           2             5    8     1       0.5076430988E-01       5    8    1         0.2800627689E+01      0.4753046496E+01
          0                 2           2             5    8     1      -0.4938156309E-02       5    8    1        -0.2800739015E+00      0.4751678879E+00
          0                 3           2             5    8     1       0.3363421124E-03       5    8    1         0.1960923941E-01      0.3325015227E-01
          0                 4           1             5    8     1      -0.1338337159E-04       5    8    1        -0.8020193136E-03      0.1359130070E-02

    ------------------------------------------------
       NWT REQUIRED            4 OUTER ITERATIONS 
       AND A TOTAL OF          7 INNER ITERATIONS.
    ------------------------------------------------

 NO OUTPUT CONTROL FOR STRESS PERIOD   34   TIME STEP   25
 
 SOLVING FOR HEAD 
                                                   Max.-Head-Change                         Max.-Flux-Residual
  Residual-Control   Outer-Iter.   Inner-Iter.     Column Row Layer    Maximum-Head-Change  Column Row Layer    Maximum-Flux-Residual          L2-NORM 
          0                 1           2             5    8     1       0.1427705175E+00       5    8    1         0.7862763955E+01      0.8666761902E+01
          0                 2           2             5    8     1       0.5123611785E-01       5    8    1         0.2835619226E+01      0.3081951648E+01
          0                 3           2             5    8     1       0.3151338265E-01       5    8    1         0.1718992728E+01      0.2113716009E+01
          0                 4           2             5    8     1       0.1393415268E-01       5    8    1         0.7670240670E+00      0.7674706438E+00
          0                 5           2             5    8     1       0.4984039395E-02       5    8    1         0.2758807283E+00      0.3007646612E+00
          0                 6           2             5    8     1       0.3501593019E-02       5    8    1         0.1906315533E+00      0.2530649618E+00
          0                 7           1             5    8     1       0.1506559713E-02       5    8    1         0.8288854951E-01      0.8294026158E-01
          0                 8           1             5    8     1       0.6481971011E-03       5    8    1         0.3567564413E-01      0.3567637476E-01
          0                 9           1             5    8     1       0.2788867133E-03       5    8    1         0.1534962556E-01      0.1534986956E-01
          0                10           1             5    8     1       0.1199909704E-03       5    8    1         0.6604177653E-02      0.6604281816E-02
          0                11           1             5    8     1       0.5162609888E-04       5    8    1         0.2841446648E-02      0.2841491460E-02

    ------------------------------------------------
       NWT REQUIRED           11 OUTER ITERATIONS 
       AND A TOTAL OF         17 INNER ITERATIONS.
    ------------------------------------------------

 NO OUTPUT CONTROL FOR STRESS PERIOD   34   TIME STEP   26
 
 SOLVING FOR HEAD 
                                                   Max.-Head-Change                         Max.-Flux-Residual
  Residual-Control   Outer-Iter.   Inner-Iter.     Column Row Layer    Maximum-Head-Change  Column Row Layer    Maximum-Flux-Residual          L2-NORM 
          0                 1           2             5    8     1       0.3096326076E+00       5    8    1         0.1703626568E+02      0.1738794501E+02
          0                 2           2             5    8     1       0.1214305892E+00       5    8    1         0.6728659835E+01      0.6980173965E+01
          0                 3           2             5    8     1       0.7194678019E-01       5    8    1         0.3943509196E+01      0.4403201834E+01
          0                 4           2             4    7     1      -0.2193235484E+00       4    6    1        -0.1211061434E+02      0.2889662422E+02
          0                 5           2             4    7     1       0.6767552929E-01       4    7    1         0.3852886793E+01      0.8360263253E+01
          0                 6           2             5    8     1      -0.1405106855E-01       5    8    1        -0.7987444521E+00      0.8082648556E+00
          0                 7           2             5    8     1      -0.6786159530E-02       5    8    1        -0.3850051527E+00      0.3850080834E+00
          0                 8           1             5    8     1      -0.3277437962E-02       5    8    1        -0.1859237029E+00      0.1859260807E+00
          0                 9           1             5    8     1      -0.1582852958E-02       5    8    1        -0.8979111906E-01      0.8979242735E-01
          0                10           1             5    8     1      -0.7644381100E-03       5    8    1        -0.4336413734E-01      0.4336477601E-01
                                                   Max.-Head-Change                         Max.-Flux-Residual
  Residual-Control   Outer-Iter.   Inner-Iter.     Column Row Layer    Maximum-Head-Change  Column Row Layer    Maximum-Flux-Residual          L2-NORM 
          0                11           1             5    8     1      -0.3691813450E-03       5    8    1        -0.2094228189E-01      0.2094259062E-01
          0                12           1             5    8     1      -0.1782923968E-03       5    8    1        -0.1011376815E-01      0.1011391728E-01
          0                13           1             5    8     1      -0.8610364828E-04       5    8    1        -0.4884247419E-02      0.4884319432E-02

    ------------------------------------------------
       NWT REQUIRED           13 OUTER ITERATIONS 
       AND A TOTAL OF         20 INNER ITERATIONS.
    ------------------------------------------------

 NO OUTPUT CONTROL FOR STRESS PERIOD   34   TIME STEP   27
 
 SOLVING FOR HEAD 
                                                   Max.-Head-Change                         Max.-Flux-Residual
  Residual-Control   Outer-Iter.   Inner-Iter.     Column Row Layer    Maximum-Head-Change  Column Row Layer    Maximum-Flux-Residual          L2-NORM 
          0                 1           2             5    8     1       0.4838751964E+00       5    8    1         0.2667515867E+02      0.2690542542E+02
          0                 2           2             5    8     1       0.2209730747E+00       5    8    1         0.1219909624E+02      0.1220534508E+02
          0                 3           2             5    8     1       0.1009124324E+00       5    8    1         0.5569529054E+01      0.5569603192E+01
          0                 4           2             5    8     1       0.4597924604E-01       5    8    1         0.2540267207E+01      0.2540269801E+01
          0                 5           2             5    8     1       0.2097269250E-01       5    8    1         0.1158724511E+01      0.1158724569E+01
          0                 6           2             5    8     1       0.9566354104E-02       5    8    1         0.5285345307E+00      0.5285345351E+00
          0                 7           1             5    8     1       0.4363537170E-02       5    8    1         0.2410830371E+00      0.2410830386E+00
          0                 8           1             5    8     1       0.1990356588E-02       5    8    1         0.1099661973E+00      0.1099661979E+00
          0                 9           1             5    8     1       0.9078688056E-03       5    8    1         0.5015931506E-01      0.5015931537E-01
          0                10           1             5    8     1       0.4141095956E-03       5    8    1         0.2287936022E-01      0.2287936035E-01
                                                   Max.-Head-Change                         Max.-Flux-Residual
  Residual-Control   Outer-Iter.   Inner-Iter.     Column Row Layer    Maximum-Head-Change  Column Row Layer    Maximum-Flux-Residual          L2-NORM 
          0                11           1             5    8     1       0.1888893587E-03       5    8    1         0.1043604905E-01      0.1043604911E-01
          0                12           1             5    8     1       0.8615880958E-04       5    8    1         0.4760234263E-02      0.4760234293E-02

    ------------------------------------------------
       NWT REQUIRED           12 OUTER ITERATIONS 
       AND A TOTAL OF         18 INNER ITERATIONS.
    ------------------------------------------------

 NO OUTPUT CONTROL FOR STRESS PERIOD   34   TIME STEP   28
 
 SOLVING FOR HEAD 
                                                   Max.-Head-Change                         Max.-Flux-Residual
  Residual-Control   Outer-Iter.   Inner-Iter.     Column Row Layer    Maximum-Head-Change  Column Row Layer    Maximum-Flux-Residual          L2-NORM 
          0                 1           2             5    8     1       0.3468537791E+00       5    8    1         0.1880413156E+02      0.2542332053E+02
          0                 2           2             5    8     1       0.1572355471E+00       5    8    1         0.8527445515E+01      0.1168105443E+02
          0                 3           2             5    8     1       0.7133400448E-01       5    8    1         0.3863816985E+01      0.5415229130E+01
          0                 4           2             5    8     1       0.3239896027E-01       5    8    1         0.1753445635E+01      0.2514286050E+01
          0                 5           2             5    8     1       0.1473161687E-01       5    8    1         0.7965438619E+00      0.1168518763E+01
          0                 6           2             4    8     1       0.6931057884E-02       4    8    1         0.3716300898E+00      0.5435580303E+00
          0                 7           2             4    8     1       0.3276939532E-02       4    8    1         0.1757980140E+00      0.2530478414E+00
          0                 8           2             4    8     1       0.1548362695E-02       4    8    1         0.8310621830E-01      0.1178881417E+00
          0                 9           2             4    8     1       0.7311950030E-03       4    8    1         0.3926379894E-01      0.5495593808E-01
          0                10           2             4    8     1       0.3451190357E-03       4    8    1         0.1854004944E-01      0.2563336584E-01
                                                   Max.-Head-Change                         Max.-Flux-Residual
  Residual-Control   Outer-Iter.   Inner-Iter.     Column Row Layer    Maximum-Head-Change  Column Row Layer    Maximum-Flux-Residual          L2-NORM 
          0                11           2             4    8     1       0.1628159774E-03       4    8    1         0.8749996201E-02      0.1196232153E-01
          0                12           1             4    8     1       0.7677736782E-04       4    8    1         0.4127624541E-02      0.5584948822E-02

    ------------------------------------------------
       NWT REQUIRED           12 OUTER ITERATIONS 
       AND A TOTAL OF         23 INNER ITERATIONS.
    ------------------------------------------------

 NO OUTPUT CONTROL FOR STRESS PERIOD   34   TIME STEP   29
 
 SOLVING FOR HEAD 
                                                   Max.-Head-Change                         Max.-Flux-Residual
  Residual-Control   Outer-Iter.   Inner-Iter.     Column Row Layer    Maximum-Head-Change  Column Row Layer    Maximum-Flux-Residual          L2-NORM 
          0                 1           2             5    7     1       0.4306375494E+00       5    7    1         0.2342952196E+02      0.3556355491E+02
          0                 2           2             5    7     1       0.1940827956E+00       5    7    1         0.1056522118E+02      0.1615650134E+02
          0                 3           2             5    7     1       0.8713493710E-01       5    7    1         0.4746342530E+01      0.7351946975E+01
          0                 4           2             4    8     1       0.3941506841E-01       5    7    1         0.2139168763E+01      0.3353637347E+01
          0                 5           2             4    8     1       0.1807189984E-01       4    8    1         0.9705897672E+00      0.1531368228E+01
          0                 6           2             4    8     1       0.8289550073E-02       4    8    1         0.4450551632E+00      0.7000836089E+00
          0                 7           2             4    8     1       0.3803946012E-02       4    8    1         0.2041616329E+00      0.3203844663E+00
          0                 8           2             4    8     1       0.1746247544E-02       4    8    1         0.9369340097E-01      0.1467627396E+00
          0                 9           2             4    8     1       0.8019321191E-03       4    8    1         0.4301405280E-01      0.6729049634E-01
          0                10           2             4    8     1       0.3684023585E-03       4    8    1         0.1975470892E-01      0.3087857181E-01
                                                   Max.-Head-Change                         Max.-Flux-Residual
  Residual-Control   Outer-Iter.   Inner-Iter.     Column Row Layer    Maximum-Head-Change  Column Row Layer    Maximum-Flux-Residual          L2-NORM 
          0                11           2             4    8     1       0.1692985461E-03       4    8    1         0.9075750893E-02      0.1418075244E-01
          0                12           1             4    8     1       0.7782577929E-04       4    8    1         0.4170991276E-02      0.6517098140E-02

    ------------------------------------------------
       NWT REQUIRED           12 OUTER ITERATIONS 
       AND A TOTAL OF         23 INNER ITERATIONS.
    ------------------------------------------------

 NO OUTPUT CONTROL FOR STRESS PERIOD   34   TIME STEP   30



 STREAM LISTING     PERIOD     34   STEP       30

 LAYER ROW COL. STREAM  RCH.  FLOW INTO     FLOW TO   FLOW OUT OF   OVRLND.     DIRECT     STREAM       STREAM     STREAM     STREAM   STREAMBED  STREAMBED
                SEG.NO.  NO.  STRM. RCH.    AQUIFER    STRM. RCH.    RUNOFF     PRECIP       ET          HEAD       DEPTH      WIDTH   CONDCTNC.   GRADIENT

   1    1    1     1     1    3.5249E+01  2.8720E-01   3.4962E+01  0.000E+00  0.000E+00  0.000E+00  1.09434E+03  1.294E+00  1.486E+01  6.688E-02  1.431E+00
   1    2    2     1     2    3.4962E+01  4.4466E-01   3.4517E+01  0.000E+00  0.000E+00  0.000E+00  1.08935E+03  1.291E+00  1.480E+01  1.036E-01  1.430E+00
   1    3    3     1     3    3.4517E+01  3.7911E-01   3.4138E+01  0.000E+00  0.000E+00  0.000E+00  1.08371E+03  1.288E+00  1.474E+01  8.841E-02  1.429E+00
   1    3    4     1     4    3.4138E+01  3.4901E-01   3.3789E+01  0.000E+00  0.000E+00  0.000E+00  1.07869E+03  1.285E+00  1.468E+01  8.145E-02  1.428E+00
   1    4    5     2     1    3.1789E+01  3.4244E-01   3.1446E+01  0.000E+00  0.000E+00  0.000E+00  1.07332E+03  1.390E+00  1.200E+01  7.800E-02  1.463E+00
   1    5    6     2     2    3.1446E+01  2.6294E-01   3.1184E+01  0.000E+00  0.000E+00  0.000E+00  1.06789E+03  1.382E+00  1.200E+01  6.000E-02  1.461E+00
   1    6    6     2     3    3.1184E+01  2.6252E-01   3.0921E+01  0.000E+00  0.000E+00  0.000E+00  1.06317E+03  1.375E+00  1.200E+01  6.000E-02  1.458E+00
   1    7    6     2     4    3.0921E+01  2.6210E-01   3.0659E+01  0.000E+00  0.000E+00  0.000E+00  1.05844E+03  1.368E+00  1.200E+01  6.000E-02  1.456E+00
   1    8    6     2     5    3.0659E+01  2.6168E-01   3.0397E+01  0.000E+00  0.000E+00  0.000E+00  1.05372E+03  1.361E+00  1.200E+01  6.000E-02  1.454E+00
   1    3    5     3     1    2.0000E+00  2.8252E-01   1.7175E+00  0.000E+00  0.000E+00  0.000E+00  1.07555E+03  1.909E+00  9.636E+00  7.227E-02  1.955E+00
   1    3    6     3     2    1.7175E+00  2.4905E-01   1.4684E+00  0.000E+00  0.000E+00  0.000E+00  1.07264E+03  1.727E+00  8.909E+00  6.682E-02  1.864E+00
   1    3    7     3     3    1.4684E+00  1.9718E-01   1.2712E+00  0.000E+00  0.000E+00  0.000E+00  1.06987E+03  1.555E+00  8.218E+00  5.547E-02  1.777E+00
   1    4    8     3     4    1.2712E+00  2.2567E-01   1.0456E+00  0.000E+00  0.000E+00  0.000E+00  1.06682E+03  1.364E+00  7.455E+00  6.709E-02  1.682E+00
   1    5    8     3     5    1.0456E+00  1.5790E-01   8.8768E-01  0.000E+00  0.000E+00  0.000E+00  1.06362E+03  1.164E+00  6.655E+00  4.991E-02  1.582E+00
   1    6    8     3     6    8.8768E-01  5.5980E-02   8.3170E-01  0.000E+00  0.000E+00  0.000E+00  1.06158E+03  1.036E+00  6.145E+00  1.844E-02  1.518E+00
   1    5   10     4     1    1.0000E+01  9.0919E-02   9.9091E+00  0.000E+00  0.000E+00  0.000E+00  1.07836E+03  6.368E-01  1.000E+01  2.500E-02  1.212E+00
   1    5    9     4     2    9.9091E+00  1.8158E-01   9.7275E+00  0.000E+00  0.000E+00  0.000E+00  1.07154E+03  6.315E-01  1.000E+01  5.000E-02  1.211E+00
   1    6    8     4     3    9.7275E+00  1.2689E-01   9.6006E+00  0.000E+00  0.000E+00  0.000E+00  1.06381E+03  6.256E-01  1.000E+01  3.500E-02  1.209E+00
   1    6    8     5     1    1.0432E+01  2.2686E-01   1.0205E+01  0.000E+00  0.000E+00  0.000E+00  1.05868E+03  6.790E-01  1.542E+01  6.166E-02  1.226E+00
   1    7    7     5     2    1.0205E+01  2.7894E-01   9.9265E+00  0.000E+00  0.000E+00  0.000E+00  1.05417E+03  6.732E-01  1.519E+01  7.594E-02  1.224E+00
   1    8    7     5     3    9.9265E+00  1.9221E-01   9.7343E+00  0.000E+00  0.000E+00  0.000E+00  1.04992E+03  6.676E-01  1.497E+01  5.241E-02  1.223E+00
   1    8    6     5     4    9.7343E+00  1.3577E-01   9.5985E+00  0.000E+00  0.000E+00  0.000E+00  1.04691E+03  6.637E-01  1.482E+01  3.706E-02  1.221E+00
   1    9    6     6     1    3.9996E+01  2.7692E-01   3.9719E+01  0.000E+00  0.000E+00  0.000E+00  1.04434E+03  1.615E+00  1.200E+01  6.000E-02  1.538E+00
   1   10    7     6     2    3.9719E+01  2.7652E-01   3.9442E+01  0.000E+00  0.000E+00  0.000E+00  1.03979E+03  1.609E+00  1.200E+01  6.000E-02  1.536E+00
   1   11    7     6     3    3.9442E+01  2.7611E-01   3.9166E+01  0.000E+00  0.000E+00  0.000E+00  1.03524E+03  1.602E+00  1.200E+01  6.000E-02  1.534E+00
   1   12    7     6     4    3.9166E+01  2.7571E-01   3.8891E+01  0.000E+00  0.000E+00  0.000E+00  1.03069E+03  1.595E+00  1.200E+01  6.000E-02  1.532E+00
   1   13    7     6     5    3.8891E+01  1.7541E-02   3.8873E+01  0.000E+00  0.000E+00  0.000E+00  1.02750E+03  1.592E+00  1.200E+01  2.400E-02  2.436E-01
   1   14    9     7     1    1.5000E+02  1.3680E+00   1.4863E+02  0.000E+00  0.000E+00  0.000E+00  1.03987E+03  2.288E+00  5.529E+01  5.593E-01  8.153E-01
   1   13    8     7     2    1.4863E+02  1.9359E+00   1.4670E+02  0.000E+00  0.000E+00  0.000E+00  1.03478E+03  2.279E+00  5.525E+01  6.148E-01  1.050E+00
   1   13    7     7     3    1.4670E+02  1.6299E+00   1.4507E+02  0.000E+00  0.000E+00  0.000E+00  1.02969E+03  2.269E+00  5.521E+01  5.584E-01  9.730E-01
   1   13    6     8     1    1.8394E+02  1.1381E+00   1.8280E+02  0.000E+00  0.000E+00  0.000E+00  1.02491E+03  3.037E+00  4.404E+01  4.488E-01  8.453E-01
   1   13    5     8     2    1.8280E+02  3.5501E-01   1.8245E+02  0.000E+00  0.000E+00  0.000E+00  1.01866E+03  3.033E+00  4.397E+01  4.481E-01  2.641E-01
   1   13    4     8     3    1.8245E+02 -1.7562E+00   1.8420E+02  0.000E+00  0.000E+00  0.000E+00  1.01241E+03  3.037E+00  4.404E+01  4.487E+00 -1.305E-01
   1   13    3     8     4    1.8420E+02 -3.2365E+00   1.8744E+02  0.000E+00  0.000E+00  0.000E+00  1.00618E+03  3.052E+00  4.426E+01  4.510E+00 -2.392E-01
   1   13    2     8     5    1.8744E+02 -2.2954E+00   1.8973E+02  0.000E+00  0.000E+00  0.000E+00  9.99944E+02  3.069E+00  4.451E+01  4.535E+00 -1.687E-01
   1   13    1     8     6    1.8973E+02 -1.8086E+00   1.9154E+02  0.000E+00  0.000E+00  0.000E+00  9.94957E+02  3.082E+00  4.469E+01  2.732E+00 -2.207E-01
   1    8    6     9     1    0.0000E+00  0.0000E+00   0.0000E+00  0.000E+00  0.000E+00  0.000E+00  1.07875E+03  0.000E+00  4.000E+00  0.000E+00  1.000E+00
   1    8    5     9     2    0.0000E+00  0.0000E+00   0.0000E+00  0.000E+00  0.000E+00  0.000E+00  1.07825E+03  0.000E+00  4.000E+00  0.000E+00  1.000E+00





UNSATURATED ZONE PACKAGE VOLUMETRIC BUDGET FOR  TIME STEP    30 STRESS PERIOD   34
  ------------------------------------------------------------------------------



     CUMULATIVE VOLUMES      L**3       RATES FOR THIS TIME STEP      L**3/T
     ------------------                 ------------------------

           IN:                                      IN:
           ---                                      ---
        INFILTRATION =  9698086265.7285          INFILTRATION =           0.8475

          OUT:                                     OUT:
          ----                                     ----
              UZF ET =  1278036692.3981                UZF ET =          12.1086
        UZF RECHARGE =  7786153391.2224          UZF RECHARGE =         137.1214

            IN - OUT =   633896182.1080              IN - OUT =        -148.3824

          STORAGE:                                 STORAGE:
          --------                                 --------
      STORAGE CHANGE =   635159887.2161        STORAGE CHANGE =        -148.3824

 PERCENT DISCREPANCY IS DIFFERENCE BETWEEN IN-OUT MINUS CHANGE IN STORAGE
 DIVIDED BY THE AVERAGE OF IN AND OUT TIMES 100

 PERCENT DISCREPANCY =          -0.00     PERCENT DISCREPANCY =           0.00






1
  VOLUMETRIC BUDGET FOR AGRICULTURAL FIELDS AT  END OF TIME STEP   30, STRESS PERIOD  34
  ------------------------------------------------------------------------------

     CUMULATIVE VOLUMES      L**3       RATES FOR THIS TIME STEP      L**3/T
     ------------------                 ------------------------

           IN:                                      IN:
           ---                                      ---
               AG WELLS  =  8674362368.0000                 AG WELLS  =           0.0000
      DIVERSION SEGMENTS =   950109248.0000        DIVERSION SEGMENTS =           0.0000
       IRRIGATION PONDS  =           0.0000         IRRIGATION PONDS  =           0.0000
           GW IRRIGATION =           0.0000             GW IRRIGATION =           0.0000
           SW IRRIGATION =           0.0000             SW IRRIGATION =           0.0000
        SYSTEM LOSSES GW =           0.0000          SYSTEM LOSSES GW =           0.0000
        SYSTEM LOSSES SW =           0.0000          SYSTEM LOSSES SW =           0.0000

                TOTAL IN =  9624471552.0000                  TOTAL IN =           0.0000

          OUT:                                     OUT:
          ----                                     ----
               AG WELLS  =           0.0000                 AG WELLS  =           0.0000
      DIVERSION SEGMENTS =           0.0000        DIVERSION SEGMENTS =           0.0000
       IRRIGATION PONDS  =           0.0000         IRRIGATION PONDS  =           0.0000
           GW IRRIGATION =  8674362368.0000             GW IRRIGATION =           0.0000
           SW IRRIGATION =   950127168.0000             SW IRRIGATION =           0.0000
        SYSTEM LOSSES GW =           0.0000          SYSTEM LOSSES GW =           0.0000
        SYSTEM LOSSES SW =           0.0000          SYSTEM LOSSES SW =           0.0000

               TOTAL OUT =  9624489984.0000                 TOTAL OUT =           0.0000

                IN - OUT =      -18432.0000                  IN - OUT =           0.0000

     PERCENT DISCREPANCY =          -0.00         PERCENT DISCREPANCY =           0.00



1
  VOLUMETRIC BUDGET FOR ENTIRE MODEL AT END OF TIME STEP   30, STRESS PERIOD  34
  ------------------------------------------------------------------------------

     CUMULATIVE VOLUMES      L**3       RATES FOR THIS TIME STEP      L**3/T
     ------------------                 ------------------------

           IN:                                      IN:
           ---                                      ---
             STORAGE     =  7032183296.0000               STORAGE     =           4.8625
       CONSTANT HEAD     =           0.0000         CONSTANT HEAD     =           0.0000
     HEAD DEP BOUNDS     =    24887764.0000       HEAD DEP BOUNDS     =           0.2879
      STREAM LEAKAGE     =  1070850688.0000        STREAM LEAKAGE     =          12.8029
        UZF RECHARGE     =  7786153472.0000          UZF RECHARGE     =         137.1214
               GW ET     =           0.0000                 GW ET     =           0.0000
     SURFACE LEAKAGE     =           0.0000       SURFACE LEAKAGE     =           0.0000
           AG WELLS      =           0.0000             AG WELLS      =           0.0000

                TOTAL IN = 15914075136.0000                  TOTAL IN =         155.0747

          OUT:                                     OUT:
          ----                                     ----
             STORAGE     =  6320116736.0000               STORAGE     =         145.6824
       CONSTANT HEAD     =           0.0000         CONSTANT HEAD     =           0.0000
     HEAD DEP BOUNDS     =    25240914.0000       HEAD DEP BOUNDS     =           0.2895
      STREAM LEAKAGE     =   892841856.0000        STREAM LEAKAGE     =           9.0966
        UZF RECHARGE     =           0.0000          UZF RECHARGE     =           0.0000
               GW ET     =     1409387.3750                 GW ET     =           0.0000
     SURFACE LEAKAGE     =           0.0000       SURFACE LEAKAGE     =           0.0000
           AG WELLS      =  8674362368.0000             AG WELLS      =           0.0000

               TOTAL OUT = 15913971712.0000                 TOTAL OUT =         155.0685

                IN - OUT =      103424.0000                  IN - OUT =       6.2103E-03

     PERCENT DISCREPANCY =           0.00         PERCENT DISCREPANCY =           0.00






         TIME SUMMARY AT END OF TIME STEP   30 IN STRESS PERIOD   34
                    SECONDS     MINUTES      HOURS       DAYS        YEARS
                    -----------------------------------------------------------
   TIME STEP LENGTH  87667.      1461.1      24.352      1.0147     2.77799E-03
 STRESS PERIOD TIME 2.63000E+06  43833.      730.56      30.440     8.33397E-02
         TOTAL TIME 8.68762E+07 1.44794E+06  24132.      1005.5      2.7529    
1
1
                            STRESS PERIOD NO.   35, LENGTH =   2630000.    
                            -----------------------------------------------

                              NUMBER OF TIME STEPS =    30

                               MULTIPLIER FOR DELT =     1.000

                            INITIAL TIME STEP SIZE =   87666.66    

 REUSING NON-PARAMETER GHB CELLS FROM LAST STRESS PERIOD

      2 GHB CELLS

 REUSING STREAM SEGMENT DATA FROM LAST STRESS PERIOD



            AREAL INFILTRATION RATE
 READING ON UNIT   19 WITH FORMAT: (FREE)              

            1           2           3           4           5           6           7           8           9          10
 ........................................................................................................................
   1   1.0000E-10  2.0000E-10   0.000       0.000       0.000       0.000       0.000       0.000       0.000       0.000    
   2   2.0000E-10  1.0000E-10  2.0000E-10   0.000       0.000      8.0000E-10  8.0000E-10  5.0000E-10   0.000       0.000    
   3    0.000      5.0000E-10  1.0000E-10  1.0000E-10  8.0000E-10  8.0000E-10  5.0000E-10  5.0000E-10   0.000       0.000    
   4   8.0000E-10  5.0000E-10  1.0000E-10  1.0000E-10  1.0000E-10  1.0000E-10  1.0000E-10  1.0000E-10  2.0000E-10   0.000    
   5   8.0000E-10  5.0000E-10  1.0000E-10  1.0000E-10  1.0000E-10  1.0000E-10  1.0000E-10  1.0000E-10  1.0000E-10  1.0000E-10
   6   8.0000E-10  5.0000E-10  5.0000E-10  2.0000E-10  2.0000E-10  1.0000E-10  1.0000E-10  1.0000E-10  1.0000E-10  5.0000E-10
   7   8.0000E-10  5.0000E-10  5.0000E-10  2.0000E-10  2.0000E-10  1.0000E-10  1.0000E-10  2.0000E-10  2.0000E-10   0.000    
   8    0.000      5.0000E-10  5.0000E-10  2.0000E-10  2.0000E-10  1.0000E-10  1.0000E-10  2.0000E-10  5.0000E-10   0.000    
   9    0.000      5.0000E-10  5.0000E-10  2.0000E-10  2.0000E-10  1.0000E-10  1.0000E-10  2.0000E-10  5.0000E-10   0.000    
  10    0.000      5.0000E-10  5.0000E-10  2.0000E-10  2.0000E-10  1.0000E-10  1.0000E-10  2.0000E-10  5.0000E-10  8.0000E-10
  11    0.000      1.0000E-10  1.0000E-10  1.0000E-10  1.0000E-10  1.0000E-10  1.0000E-10  2.0000E-10  5.0000E-10   0.000    
  12   1.0000E-10  1.0000E-10  1.0000E-10  1.0000E-10  1.0000E-10  1.0000E-10  1.0000E-10  1.0000E-10  2.0000E-10   0.000    
  13   1.0000E-10  1.0000E-10  2.0000E-10  2.0000E-10  2.0000E-10  2.0000E-10  2.0000E-10  1.0000E-10  1.0000E-10   0.000    
  14    0.000      2.0000E-10  5.0000E-10  5.0000E-10  5.0000E-10  5.0000E-10  5.0000E-10  2.0000E-10  1.0000E-10   0.000    
  15    0.000       0.000      8.0000E-10  8.0000E-10  8.0000E-10  8.0000E-10   0.000       0.000       0.000       0.000    

                  ET RATE =  5.000000E-09

 USING ET EXTINCTION DEPTH FROM PREVIOUS STRESS PERIOD. CURRENT PERIOD IS:      35

 USING EXTINCTION WATER CONTENT FROM PREVIOUS STRESS PERIOD. CURRENT PERIOD IS:      35

 USING AIR ENTRY PRESSURE FROM PREVIOUS STRESS PERIOD. CURRENT PERIOD IS:      35

 USING ROOT PRESSURE HEAD FROM PREVIOUS STRESS PERIOD. CURRENT PERIOD IS:      35

 USING ROOT ACTIVITY FROM PREVIOUS STRESS PERIOD. CURRENT PERIOD IS:      35

 PROCESSING AG STRESS PERIOD DATA

 READING AG STRESS PERIOD DATA

 READING IRRIGATION SEGMENT

 READING IRRIGATION WELL

 READING SUPPLEMENTAL WELL

 NO IRRPOND OR REUSING IRRPOND DATA FROM LAST STRESS PERIOD

 END PROCESSING AG STRESS PERIOD DATA OPTIONS
 
 SOLVING FOR HEAD 
                                                   Max.-Head-Change                         Max.-Flux-Residual
  Residual-Control   Outer-Iter.   Inner-Iter.     Column Row Layer    Maximum-Head-Change  Column Row Layer    Maximum-Flux-Residual          L2-NORM 
          0                 1           2             5    6     1       0.4032303129E+00       5    6    1         0.2192394650E+02      0.4162146052E+02
          0                 2           2             5    6     1       0.1818671021E+00       5    6    1         0.9898308150E+01      0.1882161937E+02
          0                 3           2             4    7     1       0.8274170608E-01       5    6    1         0.4452538659E+01      0.8524176912E+01
          0                 4           2             4    7     1       0.3835230674E-01       4    7    1         0.2041783051E+01      0.3864761892E+01
          0                 5           2             4    7     1       0.1776271023E-01       4    7    1         0.9462635940E+00      0.1753002411E+01
          0                 6           2             4    7     1       0.8220564937E-02       4    7    1         0.4381974601E+00      0.7954911204E+00
          0                 7           2             4    7     1       0.3801798273E-02       4    7    1         0.2027709535E+00      0.3611292704E+00
          0                 8           2             4    7     1       0.1757074651E-02       4    7    1         0.9376481017E-01      0.1640031161E+00
          0                 9           2             4    7     1       0.8115634893E-03       4    7    1         0.4333022169E-01      0.7450599253E-01
          0                10           2             4    7     1       0.3746296018E-03       4    7    1         0.2001133490E-01      0.3385859500E-01
                                                   Max.-Head-Change                         Max.-Flux-Residual
  Residual-Control   Outer-Iter.   Inner-Iter.     Column Row Layer    Maximum-Head-Change  Column Row Layer    Maximum-Flux-Residual          L2-NORM 
          0                11           2             4    7     1       0.1728399000E-03       4    7    1         0.9236582204E-02      0.1539129403E-01
          0                12           1             4    7     1       0.7970071621E-04       4    7    1         0.4260999360E-02      0.6998428676E-02

    ------------------------------------------------
       NWT REQUIRED           12 OUTER ITERATIONS 
       AND A TOTAL OF         23 INNER ITERATIONS.
    ------------------------------------------------

 NO OUTPUT CONTROL FOR STRESS PERIOD   35   TIME STEP    1
 
 SOLVING FOR HEAD 
                                                   Max.-Head-Change                         Max.-Flux-Residual
  Residual-Control   Outer-Iter.   Inner-Iter.     Column Row Layer    Maximum-Head-Change  Column Row Layer    Maximum-Flux-Residual          L2-NORM 
          0                 1           2             5    6     1       0.3159319958E+00       5    6    1         0.1719121253E+02      0.3324683081E+02
          0                 2           2             5    6     1       0.1348251935E+00       5    6    1         0.7360770748E+01      0.1446442772E+02
          0                 3           2             4    7     1       0.6283848704E-01       4    7    1         0.3332676845E+01      0.6691001622E+01
          0                 4           2             4    7     1       0.2650304303E-01       4    7    1         0.1408174963E+01      0.2780891147E+01
          0                 5           2             4    7     1       0.1369742777E-01       4    7    1         0.7254649747E+00      0.1444267036E+01
          0                 6           2             4    7     1       0.6163566263E-02       4    7    1         0.3271531058E+00      0.6428263866E+00
          0                 7           2             4    7     1       0.2773219360E-02       4    7    1         0.1471821987E+00      0.2866047724E+00
          0                 8           2             4    7     1       0.1247646485E-02       4    7    1         0.6622284515E-01      0.1278360852E+00
          0                 9           2             4    7     1       0.5612428437E-03       4    7    1         0.2979247382E-01      0.5703467312E-01
          0                10           2             4    7     1       0.2524407624E-03       4    7    1         0.1340162244E-01      0.2545268454E-01
                                                   Max.-Head-Change                         Max.-Flux-Residual
  Residual-Control   Outer-Iter.   Inner-Iter.     Column Row Layer    Maximum-Head-Change  Column Row Layer    Maximum-Flux-Residual          L2-NORM 
          0                11           1             4    7     1       0.1135312949E-03       4    7    1         0.6027775212E-02      0.1136129077E-01
          0                12           1             4    7     1       0.5105257963E-04       4    7    1         0.2710839509E-02      0.5072392095E-02

    ------------------------------------------------
       NWT REQUIRED           12 OUTER ITERATIONS 
       AND A TOTAL OF         22 INNER ITERATIONS.
    ------------------------------------------------

 NO OUTPUT CONTROL FOR STRESS PERIOD   35   TIME STEP    2
 
 SOLVING FOR HEAD 
                                                   Max.-Head-Change                         Max.-Flux-Residual
  Residual-Control   Outer-Iter.   Inner-Iter.     Column Row Layer    Maximum-Head-Change  Column Row Layer    Maximum-Flux-Residual          L2-NORM 
          0                 1           2             4    6     1       0.3162890143E+00       4    6    1         0.1681035105E+02      0.3347050000E+02
          0                 2           2             4    6     1       0.1420215672E+00       4    6    1         0.7550774667E+01      0.1478465391E+02
          0                 3           2             4    6     1       0.6375500437E-01       4    6    1         0.3390266501E+01      0.6541803832E+01
          0                 4           2             4    6     1       0.2860616537E-01       4    6    1         0.1521854311E+01      0.2889570028E+01
          0                 5           2             4    6     1       0.1282880050E-01       4    6    1         0.6827731313E+00      0.1276626697E+01
          0                 6           2             4    6     1       0.5750512392E-02       4    6    1         0.3061711861E+00      0.5641652795E+00
          0                 7           2             4    6     1       0.2576512430E-02       4    6    1         0.1372296353E+00      0.2493748036E+00
          0                 8           2             4    6     1       0.1153914200E-02       4    6    1         0.6148066708E-01      0.1102548034E+00
          0                 9           2             4    6     1       0.5165829357E-03       4    6    1         0.2753255947E-01      0.4875689061E-01
          0                10           2             4    6     1       0.2311750257E-03       4    6    1         0.1232484788E-01      0.2156567440E-01
                                                   Max.-Head-Change                         Max.-Flux-Residual
  Residual-Control   Outer-Iter.   Inner-Iter.     Column Row Layer    Maximum-Head-Change  Column Row Layer    Maximum-Flux-Residual          L2-NORM 
          0                11           1             4    6     1       0.1034153707E-03       4    6    1         0.5515088372E-02      0.9540560029E-02
          0                12           1             4    6     1       0.4624649434E-04       4    6    1         0.2466987823E-02      0.4221471901E-02

    ------------------------------------------------
       NWT REQUIRED           12 OUTER ITERATIONS 
       AND A TOTAL OF         22 INNER ITERATIONS.
    ------------------------------------------------

 NO OUTPUT CONTROL FOR STRESS PERIOD   35   TIME STEP    3
 
 SOLVING FOR HEAD 
                                                   Max.-Head-Change                         Max.-Flux-Residual
  Residual-Control   Outer-Iter.   Inner-Iter.     Column Row Layer    Maximum-Head-Change  Column Row Layer    Maximum-Flux-Residual          L2-NORM 
          0                 1           2             4    6     1       0.3257006182E+00       4    6    1         0.1742967870E+02      0.2888968081E+02
          0                 2           2             4    6     1       0.1448817710E+00       4    6    1         0.7763292400E+01      0.1249949172E+02
          0                 3           2             4    6     1       0.6442609677E-01       4    6    1         0.3452450721E+01      0.5477958753E+01
          0                 4           2             4    6     1       0.2863982305E-01       4    6    1         0.1535216470E+01      0.2405609242E+01
          0                 5           2             4    6     1       0.1272758103E-01       4    6    1         0.6824189396E+00      0.1056731634E+01
          0                 6           2             4    6     1       0.5654506302E-02       4    6    1         0.3032521250E+00      0.4643639765E+00
          0                 7           2             4    6     1       0.2511439309E-02       4    6    1         0.1347192878E+00      0.2041215889E+00
          0                 8           2             4    6     1       0.1115155457E-02       4    6    1         0.5983233439E-01      0.8975221192E-01
          0                 9           2             4    6     1       0.4950375201E-03       4    6    1         0.2656609553E-01      0.3947448527E-01
          0                10           2             4    6     1       0.2197028803E-03       4    6    1         0.1179262293E-01      0.1736573726E-01
          0                11           1             4    6     1       0.9748400932E-04       4    6    1         0.5233459934E-02      0.7641287805E-02

    ------------------------------------------------
       NWT REQUIRED           11 OUTER ITERATIONS 
       AND A TOTAL OF         21 INNER ITERATIONS.
    ------------------------------------------------

 NO OUTPUT CONTROL FOR STRESS PERIOD   35   TIME STEP    4
 
 SOLVING FOR HEAD 
                                                   Max.-Head-Change                         Max.-Flux-Residual
  Residual-Control   Outer-Iter.   Inner-Iter.     Column Row Layer    Maximum-Head-Change  Column Row Layer    Maximum-Flux-Residual          L2-NORM 
          0                 1           2             4    6     1       0.2584590072E+00       4    6    1         0.1376616922E+02      0.2583818873E+02
          0                 2           2             4    6     1       0.1097283016E+00       4    6    1         0.5855185072E+01      0.1061880607E+02
          0                 3           2             4    6     1       0.4879470813E-01       4    6    1         0.2601402088E+01      0.4727691878E+01
          0                 4           2             4    6     1       0.2087844517E-01       4    6    1         0.1112978935E+01      0.2006952180E+01
          0                 5           2             4    6     1       0.9140299852E-02       4    6    1         0.4871149405E+00      0.8781041954E+00
          0                 6           2             4    6     1       0.3825458853E-02       4    6    1         0.2038755820E+00      0.3623457892E+00
          0                 7           2             4    6     1       0.1763140291E-02       4    6    1         0.9391845983E-01      0.1696835360E+00
          0                 8           2             4    6     1       0.7603879228E-03       4    6    1         0.4049992291E-01      0.7280548806E-01
          0                 9           2             4    6     1       0.3279668587E-03       4    6    1         0.1746678300E-01      0.3125339494E-01
          0                10           2             4    6     1       0.1414692915E-03       4    6    1         0.7533834426E-02      0.1342142037E-01
          0                11           1             4    6     1       0.6102734593E-04       4    6    1         0.3249788118E-02      0.5765639081E-02

    ------------------------------------------------
       NWT REQUIRED           11 OUTER ITERATIONS 
       AND A TOTAL OF         21 INNER ITERATIONS.
    ------------------------------------------------

 NO OUTPUT CONTROL FOR STRESS PERIOD   35   TIME STEP    5
 
 SOLVING FOR HEAD 
                                                   Max.-Head-Change                         Max.-Flux-Residual
  Residual-Control   Outer-Iter.   Inner-Iter.     Column Row Layer    Maximum-Head-Change  Column Row Layer    Maximum-Flux-Residual          L2-NORM 
          0                 1           2             4    6     1       0.2306528347E+00       4    6    1         0.1228141155E+02      0.2210155438E+02
          0                 2           2             4    6     1       0.9914965221E-01       4    6    1         0.5298700118E+01      0.8984354472E+01
          0                 3           2             4    6     1       0.4258351381E-01       4    6    1         0.2275876402E+01      0.3774566983E+01
          0                 4           2             4    6     1       0.1827446331E-01       4    6    1         0.9773858367E+00      0.1592617123E+01
          0                 5           2             4    6     1       0.7836648455E-02       4    6    1         0.4193749528E+00      0.6721974451E+00
          0                 6           2             4    6     1       0.3358345715E-02       4    6    1         0.1798167131E+00      0.2838298779E+00
          0                 7           2             4    6     1       0.1438313711E-02       4    6    1         0.7704974587E-01      0.1198866835E+00
          0                 8           2             4    6     1       0.6156536082E-03       4    6    1         0.3299513123E-01      0.5065491596E-01
          0                 9           2             4    6     1       0.2633862264E-03       4    6    1         0.1412170027E-01      0.2140903775E-01
          0                10           2             4    6     1       0.1126265633E-03       4    6    1         0.6040897505E-02      0.9050783884E-02
          0                11           1             4    6     1       0.4813885525E-04       4    6    1         0.2582915962E-02      0.3827177483E-02

    ------------------------------------------------
       NWT REQUIRED           11 OUTER ITERATIONS 
       AND A TOTAL OF         21 INNER ITERATIONS.
    ------------------------------------------------

 NO OUTPUT CONTROL FOR STRESS PERIOD   35   TIME STEP    6
 
 SOLVING FOR HEAD 
                                                   Max.-Head-Change                         Max.-Flux-Residual
  Residual-Control   Outer-Iter.   Inner-Iter.     Column Row Layer    Maximum-Head-Change  Column Row Layer    Maximum-Flux-Residual          L2-NORM 
          0                 1           2             4    6     1       0.2182146105E+00       4    6    1         0.1166923255E+02      0.1950137356E+02
          0                 2           2             4    7     1      -0.1799178134E+01       5    8    1        -0.9877334096E+02      0.2377175010E+03
          0                 3           2             4    6     1      -0.2309552711E+00       4    6    1        -0.1274812904E+02      0.1905230749E+02
          0                 4           2             4    6     1       0.1572809991E-01       4    6    1         0.8923931089E+00      0.1337434676E+01
          0                 5           2             4    6     1      -0.6259917048E-03       4    6    1        -0.3650806644E-01      0.5497153233E-01
          0                 6           1             4    6     1       0.7724473044E-05       4    6    1         0.4630124711E-03      0.7775754165E-03

    ------------------------------------------------
       NWT REQUIRED            6 OUTER ITERATIONS 
       AND A TOTAL OF         11 INNER ITERATIONS.
    ------------------------------------------------

 NO OUTPUT CONTROL FOR STRESS PERIOD   35   TIME STEP    7
 
 SOLVING FOR HEAD 
                                                   Max.-Head-Change                         Max.-Flux-Residual
  Residual-Control   Outer-Iter.   Inner-Iter.     Column Row Layer    Maximum-Head-Change  Column Row Layer    Maximum-Flux-Residual          L2-NORM 
          0                 1           2             4    7     1      -0.3230326437E-01       5    8    1        -0.1733112014E+01      0.4632450259E+01
          0                 2           2             4    7     1       0.3142162523E-02       5    8    1         0.1733045975E+00      0.4783060015E+00
          0                 3           2             4    7     1      -0.2139702471E-03       5    8    1        -0.1213138955E-01      0.3348083963E-01
          0                 4           1             4    7     1       0.8514074027E-05       5    8    1         0.4961742131E-03      0.1369322959E-02

    ------------------------------------------------
       NWT REQUIRED            4 OUTER ITERATIONS 
       AND A TOTAL OF          7 INNER ITERATIONS.
    ------------------------------------------------

 NO OUTPUT CONTROL FOR STRESS PERIOD   35   TIME STEP    8
 
 SOLVING FOR HEAD 
                                                   Max.-Head-Change                         Max.-Flux-Residual
  Residual-Control   Outer-Iter.   Inner-Iter.     Column Row Layer    Maximum-Head-Change  Column Row Layer    Maximum-Flux-Residual          L2-NORM 
          0                 1           2             4    7     1      -0.3140151217E-01       4    7    1        -0.1678465676E+01      0.4476845672E+01
          0                 2           2             4    7     1       0.3054450638E-02       4    7    1         0.1678425015E+00      0.4476168848E+00
          0                 3           2             4    7     1      -0.2079973514E-03       4    7    1        -0.1174901866E-01      0.3133695953E-01
          0                 4           1             4    7     1       0.8276404379E-05       4    7    1         0.4805353597E-03      0.1281430196E-02

    ------------------------------------------------
       NWT REQUIRED            4 OUTER ITERATIONS 
       AND A TOTAL OF          7 INNER ITERATIONS.
    ------------------------------------------------

 NO OUTPUT CONTROL FOR STRESS PERIOD   35   TIME STEP    9
 
 SOLVING FOR HEAD 
                                                   Max.-Head-Change                         Max.-Flux-Residual
  Residual-Control   Outer-Iter.   Inner-Iter.     Column Row Layer    Maximum-Head-Change  Column Row Layer    Maximum-Flux-Residual          L2-NORM 
          0                 1           2             4    7     1      -0.3053117860E-01       4    7    1        -0.1631591814E+01      0.4330148064E+01
          0                 2           2             4    7     1       0.2969794635E-02       4    7    1         0.1631553670E+00      0.4330049588E+00
          0                 3           2             4    7     1      -0.2022325571E-03       4    7    1        -0.1142091671E-01      0.3031027401E-01
          0                 4           1             4    7     1       0.8047019773E-05       4    7    1         0.4671159616E-03      0.1239688282E-02

    ------------------------------------------------
       NWT REQUIRED            4 OUTER ITERATIONS 
       AND A TOTAL OF          7 INNER ITERATIONS.
    ------------------------------------------------

 NO OUTPUT CONTROL FOR STRESS PERIOD   35   TIME STEP   10
 
 SOLVING FOR HEAD 
                                                   Max.-Head-Change                         Max.-Flux-Residual
  Residual-Control   Outer-Iter.   Inner-Iter.     Column Row Layer    Maximum-Head-Change  Column Row Layer    Maximum-Flux-Residual          L2-NORM 
          0                 1           2             4    6     1       0.1333824104E+00       4    6    1         0.7303277639E+01      0.8401564441E+01
          0                 2           2             4    6     1       0.5338521836E-01       4    6    1         0.2914564920E+01      0.2946406544E+01
          0                 3           2             4    6     1       0.2137591902E-01       4    6    1         0.1167302430E+01      0.1167934715E+01
          0                 4           2             4    6     1       0.8563239822E-02       4    6    1         0.4673954947E+00      0.4674010877E+00
          0                 5           2             4    6     1       0.3431039444E-02       4    6    1         0.1872570119E+00      0.1872653798E+00
          0                 6           2             4    6     1       0.1375152320E-02       4    6    1         0.7502952604E-01      0.7506033246E-01
          0                 7           2             4    6     1       0.5513484180E-03       4    6    1         0.3007324010E-01      0.3010708509E-01
          0                 8           2             4    6     1       0.2211303103E-03       4    6    1         0.1205807182E-01      0.1208417717E-01
          0                 9           1             4    6     1       0.8871842061E-04       4    6    1         0.4836395193E-02      0.4853345104E-02

    ------------------------------------------------
       NWT REQUIRED            9 OUTER ITERATIONS 
       AND A TOTAL OF         17 INNER ITERATIONS.
    ------------------------------------------------

 NO OUTPUT CONTROL FOR STRESS PERIOD   35   TIME STEP   11
 
 SOLVING FOR HEAD 
                                                   Max.-Head-Change                         Max.-Flux-Residual
  Residual-Control   Outer-Iter.   Inner-Iter.     Column Row Layer    Maximum-Head-Change  Column Row Layer    Maximum-Flux-Residual          L2-NORM 
          0                 1           2             4    6     1       0.1818660393E+00       4    6    1         0.9759168301E+01      0.1292181519E+02
          0                 2           2             4    6     1       0.7432881422E-01       4    6    1         0.3994960319E+01      0.5055702450E+01
          0                 3           2             4    6     1       0.3035179527E-01       4    6    1         0.1631650881E+01      0.2029412286E+01
          0                 4           2             4    6     1       0.1182296489E-01       4    6    1         0.6355259377E+00      0.7926617687E+00
          0                 5           2             4    6     1       0.4597612046E-02       4    6    1         0.2470882776E+00      0.3093807560E+00
          0                 6           2             4    6     1       0.1788305801E-02       4    6    1         0.9609063692E-01      0.1208210466E+00
          0                 7           2             4    6     1       0.6957542265E-03       4    6    1         0.3737761118E-01      0.4720817576E-01
          0                 8           2             4    6     1       0.2707543782E-03       4    6    1         0.1454277244E-01      0.1845490079E-01
          0                 9           1             4    6     1       0.1053905296E-03       4    6    1         0.5659635546E-02      0.7218012112E-02
          0                10           1             4    6     1       0.4103312398E-04       4    6    1         0.2203109961E-02      0.2824406676E-02

    ------------------------------------------------
       NWT REQUIRED           10 OUTER ITERATIONS 
       AND A TOTAL OF         18 INNER ITERATIONS.
    ------------------------------------------------

 NO OUTPUT CONTROL FOR STRESS PERIOD   35   TIME STEP   12
 
 SOLVING FOR HEAD 
                                                   Max.-Head-Change                         Max.-Flux-Residual
  Residual-Control   Outer-Iter.   Inner-Iter.     Column Row Layer    Maximum-Head-Change  Column Row Layer    Maximum-Flux-Residual          L2-NORM 
          0                 1           2             4    6     1       0.1244441766E+00       5    6    1         0.6646972142E+01      0.1456943714E+02
          0                 2           2             4    6     1       0.4923381964E-01       4    6    1         0.2611517731E+01      0.5645938561E+01
          0                 3           2             4    6     1       0.1947858266E-01       4    6    1         0.1032464986E+01      0.2218613673E+01
          0                 4           2             4    7     1       0.7758994423E-02       4    6    1         0.4085207212E+00      0.8742385914E+00
          0                 5           2             4    7     1       0.3113564757E-02       4    7    1         0.1632218437E+00      0.3447082671E+00
          0                 6           2             4    7     1       0.1248228630E-02       4    7    1         0.6548488943E-01      0.1360011910E+00
          0                 7           2             4    7     1       0.4999809884E-03       4    7    1         0.2624798591E-01      0.5368684307E-01
          0                 8           2             4    7     1       0.2001109462E-03       4    7    1         0.1051190902E-01      0.2120315867E-01
          0                 9           1             4    7     1       0.8003450116E-04       4    7    1         0.4206607095E-02      0.8377542380E-02

    ------------------------------------------------
       NWT REQUIRED            9 OUTER ITERATIONS 
       AND A TOTAL OF         17 INNER ITERATIONS.
    ------------------------------------------------

 NO OUTPUT CONTROL FOR STRESS PERIOD   35   TIME STEP   13
 
 SOLVING FOR HEAD 
                                                   Max.-Head-Change                         Max.-Flux-Residual
  Residual-Control   Outer-Iter.   Inner-Iter.     Column Row Layer    Maximum-Head-Change  Column Row Layer    Maximum-Flux-Residual          L2-NORM 
          0                 1           2             4    6     1       0.1202906897E+00       4    6    1         0.6358658161E+01      0.1474859228E+02
          0                 2           2             4    6     1       0.4759109651E-01       4    6    1         0.2524684237E+01      0.5708855875E+01
          0                 3           2             4    7     1       0.1907865667E-01       4    7    1         0.9987920470E+00      0.2244246942E+01
          0                 4           2             4    7     1       0.7662202471E-02       4    7    1         0.4013979669E+00      0.8849006704E+00
          0                 5           2             4    7     1       0.3074927125E-02       4    7    1         0.1611801265E+00      0.3490670795E+00
          0                 6           2             4    7     1       0.1233125632E-02       4    7    1         0.6467387954E-01      0.1377601450E+00
          0                 7           2             4    7     1       0.4941816118E-03       4    7    1         0.2593226433E-01      0.5438814612E-01
          0                 8           2             4    7     1       0.1979190241E-03       4    7    1         0.1039110588E-01      0.2147968880E-01
          0                 9           1             4    7     1       0.7921812946E-04       4    7    1         0.4161095926E-02      0.8485451131E-02

    ------------------------------------------------
       NWT REQUIRED            9 OUTER ITERATIONS 
       AND A TOTAL OF         17 INNER ITERATIONS.
    ------------------------------------------------

 NO OUTPUT CONTROL FOR STRESS PERIOD   35   TIME STEP   14
 
 SOLVING FOR HEAD 
                                                   Max.-Head-Change                         Max.-Flux-Residual
  Residual-Control   Outer-Iter.   Inner-Iter.     Column Row Layer    Maximum-Head-Change  Column Row Layer    Maximum-Flux-Residual          L2-NORM 
          0                 1           2             4    6     1       0.1163303974E+00       4    6    1         0.6146543075E+01      0.1365132144E+02
          0                 2           2             4    7     1       0.4636665024E-01       4    6    1         0.2441844025E+01      0.5166211521E+01
          0                 3           2             4    7     1       0.1848848365E-01       4    7    1         0.9741738882E+00      0.1999927860E+01
          0                 4           2             4    7     1       0.7361986204E-02       4    7    1         0.3883528742E+00      0.7776611512E+00
          0                 5           2             4    7     1       0.2927855147E-02       4    7    1         0.1545965906E+00      0.3026816839E+00
          0                 6           2             4    7     1       0.1163107849E-02       4    7    1         0.6146799496E-01      0.1179252573E+00
          0                 7           2             4    7     1       0.4615879420E-03       4    7    1         0.2441317519E-01      0.4598334254E-01
          0                 8           2             4    7     1       0.1830187369E-03       4    7    1         0.9686634922E-02      0.1794437405E-01
          0                 9           1             4    7     1       0.7250716895E-04       4    7    1         0.3840046625E-02      0.7007351923E-02

    ------------------------------------------------
       NWT REQUIRED            9 OUTER ITERATIONS 
       AND A TOTAL OF         17 INNER ITERATIONS.
    ------------------------------------------------

 NO OUTPUT CONTROL FOR STRESS PERIOD   35   TIME STEP   15
 
 SOLVING FOR HEAD 
                                                   Max.-Head-Change                         Max.-Flux-Residual
  Residual-Control   Outer-Iter.   Inner-Iter.     Column Row Layer    Maximum-Head-Change  Column Row Layer    Maximum-Flux-Residual          L2-NORM 
          0                 1           2             4    6     1       0.1123434543E+00       4    6    1         0.5943022650E+01      0.1227578947E+02
          0                 2           2             4    6     1       0.4431147305E-01       4    6    1         0.2357441075E+01      0.4543530635E+01
          0                 3           2             4    6     1       0.1746140129E-01       4    6    1         0.9285657501E+00      0.1737955939E+01
          0                 4           2             4    6     1       0.6870949913E-02       4    6    1         0.3659086477E+00      0.6609134983E+00
          0                 5           2             4    6     1       0.2699574985E-02       4    6    1         0.1439343556E+00      0.2512723734E+00
          0                 6           2             4    6     1       0.1059196224E-02       4    6    1         0.5653425225E-01      0.9566582326E-01
          0                 7           2             4    6     1       0.4150704801E-03       4    6    1         0.2217553886E-01      0.3646777120E-01
          0                 8           2             4    6     1       0.1624746213E-03       4    6    1         0.8687868816E-02      0.1391711855E-01
          0                 9           1             4    6     1       0.6353527314E-04       4    6    1         0.3400017122E-02      0.5316537485E-02

    ------------------------------------------------
       NWT REQUIRED            9 OUTER ITERATIONS 
       AND A TOTAL OF         17 INNER ITERATIONS.
    ------------------------------------------------

 NO OUTPUT CONTROL FOR STRESS PERIOD   35   TIME STEP   16
 
 SOLVING FOR HEAD 
                                                   Max.-Head-Change                         Max.-Flux-Residual
  Residual-Control   Outer-Iter.   Inner-Iter.     Column Row Layer    Maximum-Head-Change  Column Row Layer    Maximum-Flux-Residual          L2-NORM 
          0                 1           2             4    6     1       0.1073546775E+00       4    6    1         0.5726274294E+01      0.1057495182E+02
          0                 2           2             4    6     1       0.4189186866E-01       4    6    1         0.2248027785E+01      0.3798506653E+01
          0                 3           2             4    6     1       0.1633785364E-01       4    6    1         0.8759393685E+00      0.1437824023E+01
          0                 4           2             4    6     1       0.6368454281E-02       4    6    1         0.3416504696E+00      0.5484871587E+00
          0                 5           2             4    6     1       0.2481198451E-02       4    6    1         0.1331578084E+00      0.2093752794E+00
          0                 6           2             4    6     1       0.9662533536E-03       4    6    1         0.5187435667E-01      0.7998886103E-01
          0                 7           2             4    6     1       0.3761274508E-03       4    6    1         0.2019958000E-01      0.3058040979E-01
          0                 8           2             4    6     1       0.1463541200E-03       4    6    1         0.7862289037E-02      0.1169900391E-01
          0                 9           1             4    6     1       0.5692611458E-04       4    6    1         0.3059030591E-02      0.4478449010E-02

    ------------------------------------------------
       NWT REQUIRED            9 OUTER ITERATIONS 
       AND A TOTAL OF         17 INNER ITERATIONS.
    ------------------------------------------------

 NO OUTPUT CONTROL FOR STRESS PERIOD   35   TIME STEP   17
 
 SOLVING FOR HEAD 
                                                   Max.-Head-Change                         Max.-Flux-Residual
  Residual-Control   Outer-Iter.   Inner-Iter.     Column Row Layer    Maximum-Head-Change  Column Row Layer    Maximum-Flux-Residual          L2-NORM 
          0                 1           2             4    6     1       0.1009944320E+00       4    6    1         0.5378491505E+01      0.1031743436E+02
          0                 2           2             4    6     1       0.3735365942E-01       4    6    1         0.2001261665E+01      0.3604644992E+01
          0                 3           2             4    6     1       0.1382332401E-01       4    6    1         0.7390600366E+00      0.1337104772E+01
          0                 4           2             4    6     1       0.5118329544E-02       4    6    1         0.2736083821E+00      0.5002099709E+00
          0                 5           2             4    6     1       0.1896148531E-02       4    6    1         0.1013170466E+00      0.1871598477E+00
          0                 6           2             4    6     1       0.7028088956E-03       4    6    1         0.3753845760E-01      0.7004981296E-01
          0                 7           2             4    6     1       0.2606246759E-03       4    6    1         0.1391514701E-01      0.2622445645E-01
          0                 8           1             4    6     1       0.9669419266E-04       4    6    1         0.5160729718E-02      0.9819816529E-02

    ------------------------------------------------
       NWT REQUIRED            8 OUTER ITERATIONS 
       AND A TOTAL OF         15 INNER ITERATIONS.
    ------------------------------------------------

 NO OUTPUT CONTROL FOR STRESS PERIOD   35   TIME STEP   18
 
 SOLVING FOR HEAD 
                                                   Max.-Head-Change                         Max.-Flux-Residual
  Residual-Control   Outer-Iter.   Inner-Iter.     Column Row Layer    Maximum-Head-Change  Column Row Layer    Maximum-Flux-Residual          L2-NORM 
          0                 1           2             4    7     1       0.7112145814E-01       4    7    1         0.3725686346E+01      0.9093233928E+01
          0                 2           2             4    7     1       0.2693093539E-01       4    7    1         0.1415522226E+01      0.3057948368E+01
          0                 3           2             4    7     1       0.1019351301E-01       4    7    1         0.5355545003E+00      0.1123558013E+01
          0                 4           2             4    7     1       0.3856686212E-02       4    7    1         0.2027188364E+00      0.4181560690E+00
          0                 5           2             4    7     1       0.1458549146E-02       4    7    1         0.7669031149E-01      0.1557677705E+00
          0                 6           2             4    7     1       0.5513718427E-03       4    7    1         0.2900076864E-01      0.5807611144E-01
          0                 7           2             4    7     1       0.2083467962E-03       4    7    1         0.1096212323E-01      0.2166761035E-01
          0                 8           1             4    7     1       0.7869569551E-04       4    7    1         0.4141895194E-02      0.8088498707E-02

    ------------------------------------------------
       NWT REQUIRED            8 OUTER ITERATIONS 
       AND A TOTAL OF         15 INNER ITERATIONS.
    ------------------------------------------------

 NO OUTPUT CONTROL FOR STRESS PERIOD   35   TIME STEP   19
 
 SOLVING FOR HEAD 
                                                   Max.-Head-Change                         Max.-Flux-Residual
  Residual-Control   Outer-Iter.   Inner-Iter.     Column Row Layer    Maximum-Head-Change  Column Row Layer    Maximum-Flux-Residual          L2-NORM 
          0                 1           2             4    7     1       0.6992470105E-01       4    7    1         0.3663962057E+01      0.8607077271E+01
          0                 2           2             4    7     1       0.2646230255E-01       4    7    1         0.1391606489E+01      0.2849218605E+01
          0                 3           2             4    7     1       0.1000889514E-01       4    7    1         0.5261645510E+00      0.1049769422E+01
          0                 4           2             4    7     1       0.3783707991E-02       4    7    1         0.1990162179E+00      0.3922381926E+00
          0                 5           2             4    7     1       0.1429660263E-02       4    7    1         0.7522580910E-01      0.1465857800E+00
          0                 6           2             4    7     1       0.5399361995E-03       4    7    1         0.2842091467E-01      0.5479628622E-01
          0                 7           2             4    7     1       0.2038246423E-03       4    7    1         0.1073260169E-01      0.2048756472E-01
          0                 8           1             4    7     1       0.7691047541E-04       4    7    1         0.4051154519E-02      0.7661276686E-02

    ------------------------------------------------
       NWT REQUIRED            8 OUTER ITERATIONS 
       AND A TOTAL OF         15 INNER ITERATIONS.
    ------------------------------------------------

 NO OUTPUT CONTROL FOR STRESS PERIOD   35   TIME STEP   20
 
 SOLVING FOR HEAD 
                                                   Max.-Head-Change                         Max.-Flux-Residual
  Residual-Control   Outer-Iter.   Inner-Iter.     Column Row Layer    Maximum-Head-Change  Column Row Layer    Maximum-Flux-Residual          L2-NORM 
          0                 1           2             5    8     1       0.1195620126E+00       5    8    1         0.6460061641E+01      0.1051592528E+02
          0                 2           2             5    8     1       0.4735451939E-01       5    8    1         0.2578741529E+01      0.3755411391E+01
          0                 3           2             5    8     1       0.1874483961E-01       5    8    1         0.1019432118E+01      0.1441035267E+01
          0                 4           2             5    8     1       0.7416035987E-02       5    8    1         0.4035928279E+00      0.5584829542E+00
          0                 5           2             5    8     1       0.2932558484E-02       5    8    1         0.1596529241E+00      0.2166375944E+00
          0                 6           2             5    8     1       0.1159098836E-02       5    8    1         0.6312630797E-01      0.8411743177E-01
          0                 7           2             5    8     1       0.4579376616E-03       5    8    1         0.2494848327E-01      0.3269046163E-01
          0                 8           1             5    8     1       0.1808491917E-03       5    8    1         0.9855818224E-02      0.1271491481E-01
          0                 9           1             5    8     1       0.7139411403E-04       5    8    1         0.3891955917E-02      0.4949221352E-02

    ------------------------------------------------
       NWT REQUIRED            9 OUTER ITERATIONS 
       AND A TOTAL OF         16 INNER ITERATIONS.
    ------------------------------------------------

 NO OUTPUT CONTROL FOR STRESS PERIOD   35   TIME STEP   21
 
 SOLVING FOR HEAD 
                                                   Max.-Head-Change                         Max.-Flux-Residual
  Residual-Control   Outer-Iter.   Inner-Iter.     Column Row Layer    Maximum-Head-Change  Column Row Layer    Maximum-Flux-Residual          L2-NORM 
          0                 1           2             5    8     1       0.1258385029E+00       5    8    1         0.6801668785E+01      0.1074489738E+02
          0                 2           2             5    8     1       0.4978762938E-01       5    8    1         0.2713863314E+01      0.3816213474E+01
          0                 3           2             5    8     1       0.1968112500E-01       5    8    1         0.1071554958E+01      0.1457833394E+01
          0                 4           2             5    8     1       0.7773790009E-02       5    8    1         0.4236304734E+00      0.5630310951E+00
          0                 5           2             5    8     1       0.3068376833E-02       5    8    1         0.1672978850E+00      0.2177511219E+00
          0                 6           2             5    8     1       0.1210350673E-02       5    8    1         0.6602484848E-01      0.8433004458E-01
          0                 7           2             5    8     1       0.4771660346E-03       5    8    1         0.2604089935E-01      0.3269729288E-01
          0                 8           1             5    8     1       0.1880221241E-03       5    8    1         0.1026516896E-01      0.1269088735E-01
          0                 9           1             5    8     1       0.7405452469E-04       5    8    1         0.4044476027E-02      0.4930287719E-02

    ------------------------------------------------
       NWT REQUIRED            9 OUTER ITERATIONS 
       AND A TOTAL OF         16 INNER ITERATIONS.
    ------------------------------------------------

 NO OUTPUT CONTROL FOR STRESS PERIOD   35   TIME STEP   22
 
 SOLVING FOR HEAD 
                                                   Max.-Head-Change                         Max.-Flux-Residual
  Residual-Control   Outer-Iter.   Inner-Iter.     Column Row Layer    Maximum-Head-Change  Column Row Layer    Maximum-Flux-Residual          L2-NORM 
          0                 1           2             5    8     1       0.1163242456E+00       5    8    1         0.6284513046E+01      0.1024308636E+02
          0                 2           2             5    8     1       0.4587279210E-01       5    8    1         0.2504416699E+01      0.3609541893E+01
          0                 3           2             5    8     1       0.1811792923E-01       5    8    1         0.9869260378E+00      0.1394227727E+01
          0                 4           2             5    8     1       0.7156488877E-02       5    8    1         0.3899319319E+00      0.5458732596E+00
          0                 5           2             5    8     1       0.2827155465E-02       5    8    1         0.1540190995E+00      0.2142258790E+00
          0                 6           2             5    8     1       0.1117055817E-02       5    8    1         0.6084693297E-01      0.8426723839E-01
          0                 7           2             5    8     1       0.4414585771E-03       5    8    1         0.2404250734E-01      0.3321609251E-01
          0                 8           2             5    8     1       0.1745046109E-03       5    8    1         0.9501969398E-02      0.1311784357E-01
          0                 9           1             5    8     1       0.6899785240E-04       5    8    1         0.3756225248E-02      0.5189475774E-02

    ------------------------------------------------
       NWT REQUIRED            9 OUTER ITERATIONS 
       AND A TOTAL OF         17 INNER ITERATIONS.
    ------------------------------------------------

 NO OUTPUT CONTROL FOR STRESS PERIOD   35   TIME STEP   23
 
 SOLVING FOR HEAD 
                                                   Max.-Head-Change                         Max.-Flux-Residual
  Residual-Control   Outer-Iter.   Inner-Iter.     Column Row Layer    Maximum-Head-Change  Column Row Layer    Maximum-Flux-Residual          L2-NORM 
          0                 1           2             4    8     1       0.1311455398E+00       4    8    1         0.6977509304E+01      0.1303052847E+02
          0                 2           2             4    8     1       0.5308962376E-01       4    8    1         0.2839436627E+01      0.4892202472E+01
          0                 3           2             4    8     1       0.2148022236E-01       4    8    1         0.1148034881E+01      0.1944128116E+01
          0                 4           2             4    8     1       0.8687168790E-02       4    8    1         0.4645310084E+00      0.7785269015E+00
          0                 5           2             4    8     1       0.3512026560E-02       4    8    1         0.1878500121E+00      0.3119807366E+00
          0                 6           2             4    8     1       0.1419391459E-02       4    8    1         0.7593834789E-01      0.1251093187E+00
          0                 7           2             4    8     1       0.5734981960E-03       4    8    1         0.3068878518E-01      0.5019903222E-01
          0                 8           2             4    8     1       0.2316671782E-03       4    8    1         0.1239902885E-01      0.2015138955E-01
          0                 9           1             4    8     1       0.9356507341E-04       4    8    1         0.5008428255E-02      0.8092544516E-02

    ------------------------------------------------
       NWT REQUIRED            9 OUTER ITERATIONS 
       AND A TOTAL OF         17 INNER ITERATIONS.
    ------------------------------------------------

 NO OUTPUT CONTROL FOR STRESS PERIOD   35   TIME STEP   24
 
 SOLVING FOR HEAD 
                                                   Max.-Head-Change                         Max.-Flux-Residual
  Residual-Control   Outer-Iter.   Inner-Iter.     Column Row Layer    Maximum-Head-Change  Column Row Layer    Maximum-Flux-Residual          L2-NORM 
          0                 1           2             4    7     1       0.1342702841E+00       4    7    1         0.7076718237E+01      0.1478461577E+02
          0                 2           2             4    7     1       0.5516069912E-01       4    7    1         0.2913822688E+01      0.5721131037E+01
          0                 3           2             4    7     1       0.2264848941E-01       4    7    1         0.1196425533E+01      0.2319661617E+01
          0                 4           2             4    7     1       0.9294673298E-02       4    7    1         0.4912209760E+00      0.9458115537E+00
          0                 5           2             4    7     1       0.3812740249E-02       4    7    1         0.2015710801E+00      0.3856483389E+00
          0                 6           2             4    7     1       0.1563396712E-02       4    7    1         0.8267895685E-01      0.1572665705E+00
          0                 7           2             4    7     1       0.6408377982E-03       4    7    1         0.3389957168E-01      0.6413872878E-01
          0                 8           2             4    7     1       0.2625970243E-03       4    7    1         0.1389452870E-01      0.2616000647E-01
          0                 9           1             4    7     1       0.1075741931E-03       4    7    1         0.5693235916E-02      0.1067047251E-01
          0                10           1             4    7     1       0.4405702527E-04       4    7    1         0.2332135570E-02      0.4352648874E-02

    ------------------------------------------------
       NWT REQUIRED           10 OUTER ITERATIONS 
       AND A TOTAL OF         18 INNER ITERATIONS.
    ------------------------------------------------

 NO OUTPUT CONTROL FOR STRESS PERIOD   35   TIME STEP   25
 
 SOLVING FOR HEAD 
                                                   Max.-Head-Change                         Max.-Flux-Residual
  Residual-Control   Outer-Iter.   Inner-Iter.     Column Row Layer    Maximum-Head-Change  Column Row Layer    Maximum-Flux-Residual          L2-NORM 
          0                 1           2             4    7     1       0.1358049829E+00       4    7    1         0.7164541994E+01      0.1540720760E+02
          0                 2           2             4    7     1       0.5573213774E-01       4    7    1         0.2946430486E+01      0.5950734733E+01
          0                 3           2             4    7     1       0.2286385699E-01       4    7    1         0.1208578369E+01      0.2408590996E+01
          0                 4           2             4    7     1       0.9376921101E-02       4    7    1         0.4958142301E+00      0.9806062855E+00
          0                 5           2             4    7     1       0.3844582721E-02       4    7    1         0.2033301105E+00      0.3992696953E+00
          0                 6           2             4    7     1       0.1575891613E-02       4    7    1         0.8336189612E-01      0.1626054192E+00
          0                 7           2             4    7     1       0.6458037307E-03       4    7    1         0.3416828580E-01      0.6623389684E-01
          0                 8           2             4    7     1       0.2645938403E-03       4    7    1         0.1400159672E-01      0.2698333536E-01
          0                 9           1             4    7     1       0.1083854393E-03       4    7    1         0.5736386568E-02      0.1099446475E-01
          0                10           1             4    7     1       0.4438952289E-04       4    7    1         0.2349701140E-02      0.4480326933E-02

    ------------------------------------------------
       NWT REQUIRED           10 OUTER ITERATIONS 
       AND A TOTAL OF         18 INNER ITERATIONS.
    ------------------------------------------------

 NO OUTPUT CONTROL FOR STRESS PERIOD   35   TIME STEP   26
 
 SOLVING FOR HEAD 
                                                   Max.-Head-Change                         Max.-Flux-Residual
  Residual-Control   Outer-Iter.   Inner-Iter.     Column Row Layer    Maximum-Head-Change  Column Row Layer    Maximum-Flux-Residual          L2-NORM 
          0                 1           2             4    7     1       0.1324278387E+00       4    7    1         0.6951168733E+01      0.1485133917E+02
          0                 2           2             4    7     1       0.5466850923E-01       4    7    1         0.2876683032E+01      0.5679326402E+01
          0                 3           2             4    7     1       0.2255451069E-01       4    7    1         0.1186866840E+01      0.2301886897E+01
          0                 4           2             4    7     1       0.9300107296E-02       4    7    1         0.4896415703E+00      0.9391214871E+00
          0                 5           2             4    7     1       0.3832820721E-02       4    7    1         0.2018755744E+00      0.3831743818E+00
          0                 6           2             4    7     1       0.1578850687E-02       4    7    1         0.8319010414E-01      0.1563702596E+00
          0                 7           2             4    7     1       0.6500850060E-03       4    7    1         0.3426527500E-01      0.6382277767E-01
          0                 8           2             4    7     1       0.2675586451E-03       4    7    1         0.1410737066E-01      0.2605287239E-01
          0                 9           1             4    7     1       0.1100777742E-03       4    7    1         0.5805774843E-02      0.1063623710E-01
          0                10           1             4    7     1       0.4527131663E-04       4    7    1         0.2388407411E-02      0.4342779857E-02

    ------------------------------------------------
       NWT REQUIRED           10 OUTER ITERATIONS 
       AND A TOTAL OF         18 INNER ITERATIONS.
    ------------------------------------------------

 NO OUTPUT CONTROL FOR STRESS PERIOD   35   TIME STEP   27
 
 SOLVING FOR HEAD 
                                                   Max.-Head-Change                         Max.-Flux-Residual
  Residual-Control   Outer-Iter.   Inner-Iter.     Column Row Layer    Maximum-Head-Change  Column Row Layer    Maximum-Flux-Residual          L2-NORM 
          0                 1           2             4    7     1       0.1299497082E+00       4    7    1         0.6805545707E+01      0.1503310831E+02
          0                 2           2             4    7     1       0.5378039884E-01       4    7    1         0.2824409982E+01      0.5734198599E+01
          0                 3           2             4    7     1       0.2223891654E-01       4    7    1         0.1168142266E+01      0.2324767062E+01
          0                 4           2             4    7     1       0.9189123878E-02       4    7    1         0.4830018092E+00      0.9489578699E+00
          0                 5           2             4    7     1       0.3794300697E-02       4    7    1         0.1995461583E+00      0.3873716776E+00
          0                 6           2             4    7     1       0.1565706043E-02       4    7    1         0.8238409572E-01      0.1581512883E+00
          0                 7           2             4    7     1       0.6457001752E-03       4    7    1         0.3399134220E-01      0.6457492055E-01
          0                 8           2             4    7     1       0.2661417943E-03       4    7    1         0.1401649741E-01      0.2636923671E-01
          0                 9           1             4    7     1       0.1096413219E-03       4    7    1         0.5776647198E-02      0.1076885067E-01
          0                10           1             4    7     1       0.4514715201E-04       4    7    1         0.2379548287E-02      0.4398205083E-02

    ------------------------------------------------
       NWT REQUIRED           10 OUTER ITERATIONS 
       AND A TOTAL OF         18 INNER ITERATIONS.
    ------------------------------------------------

 NO OUTPUT CONTROL FOR STRESS PERIOD   35   TIME STEP   28
 
 SOLVING FOR HEAD 
                                                   Max.-Head-Change                         Max.-Flux-Residual
  Residual-Control   Outer-Iter.   Inner-Iter.     Column Row Layer    Maximum-Head-Change  Column Row Layer    Maximum-Flux-Residual          L2-NORM 
          0                 1           2             4    7     1       0.1267172136E+00       4    7    1         0.6689316395E+01      0.1356331341E+02
          0                 2           2             4    7     1       0.5186476363E-01       4    7    1         0.2748830305E+01      0.4932777221E+01
          0                 3           2             4    7     1       0.2118768989E-01       4    7    1         0.1124030484E+01      0.1954791651E+01
          0                 4           2             4    7     1       0.8641847919E-02       4    7    1         0.4590588903E+00      0.7837983971E+00
          0                 5           2             4    7     1       0.3520090461E-02       4    7    1         0.1871794032E+00      0.3148717124E+00
          0                 6           2             4    7     1       0.1432248049E-02       4    7    1         0.7622483878E-01      0.1266904512E+00
          0                 7           2             4    7     1       0.5822066834E-03       4    7    1         0.3100767607E-01      0.5103511810E-01
          0                 8           2             4    7     1       0.2364804359E-03       4    7    1         0.1260233604E-01      0.2057759915E-01
          0                 9           1             4    7     1       0.9599009081E-04       4    7    1         0.5118045943E-02      0.8302932859E-02

    ------------------------------------------------
       NWT REQUIRED            9 OUTER ITERATIONS 
       AND A TOTAL OF         17 INNER ITERATIONS.
    ------------------------------------------------

 NO OUTPUT CONTROL FOR STRESS PERIOD   35   TIME STEP   29
 
 SOLVING FOR HEAD 
                                                   Max.-Head-Change                         Max.-Flux-Residual
  Residual-Control   Outer-Iter.   Inner-Iter.     Column Row Layer    Maximum-Head-Change  Column Row Layer    Maximum-Flux-Residual          L2-NORM 
          0                 1           2             4    6     1       0.1163006706E+00       4    6    1         0.6159414604E+01      0.1134222885E+02
          0                 2           2             4    6     1       0.4715300393E-01       4    6    1         0.2520866911E+01      0.3840757738E+01
          0                 3           2             4    6     1       0.1908969692E-01       4    6    1         0.1019809491E+01      0.1490617258E+01
          0                 4           2             4    6     1       0.7718602297E-02       4    6    1         0.4128691116E+00      0.5890102212E+00
          0                 5           2             4    6     1       0.3117454835E-02       4    6    1         0.1668914857E+00      0.2332982716E+00
          0                 6           2             4    6     1       0.1257896112E-02       4    6    1         0.6739149061E-01      0.9259067900E-01
          0                 7           2             4    6     1       0.5071362496E-03       4    6    1         0.2718749395E-01      0.3680503511E-01
          0                 8           2             4    6     1       0.2043075727E-03       4    6    1         0.1095919426E-01      0.1464879291E-01
          0                 9           1             4    6     1       0.8225507904E-04       4    6    1         0.4414449117E-02      0.5836384815E-02

    ------------------------------------------------
       NWT REQUIRED            9 OUTER ITERATIONS 
       AND A TOTAL OF         17 INNER ITERATIONS.
    ------------------------------------------------

 NO OUTPUT CONTROL FOR STRESS PERIOD   35   TIME STEP   30



 STREAM LISTING     PERIOD     35   STEP       30

 LAYER ROW COL. STREAM  RCH.  FLOW INTO     FLOW TO   FLOW OUT OF   OVRLND.     DIRECT     STREAM       STREAM     STREAM     STREAM   STREAMBED  STREAMBED
                SEG.NO.  NO.  STRM. RCH.    AQUIFER    STRM. RCH.    RUNOFF     PRECIP       ET          HEAD       DEPTH      WIDTH   CONDCTNC.   GRADIENT

   1    1    1     1     1    2.6249E+01  2.5084E-01   2.5998E+01  0.000E+00  0.000E+00  0.000E+00  1.09424E+03  1.197E+00  1.328E+01  5.977E-02  1.399E+00
   1    2    2     1     2    2.5998E+01  3.8795E-01   2.5610E+01  0.000E+00  0.000E+00  0.000E+00  1.08925E+03  1.192E+00  1.322E+01  9.254E-02  1.397E+00
   1    3    3     1     3    2.5610E+01  3.3035E-01   2.5280E+01  0.000E+00  0.000E+00  0.000E+00  1.08361E+03  1.187E+00  1.315E+01  7.890E-02  1.396E+00
   1    3    4     1     4    2.5280E+01  3.0378E-01   2.4976E+01  0.000E+00  0.000E+00  0.000E+00  1.07859E+03  1.182E+00  1.309E+01  7.264E-02  1.394E+00
   1    4    5     2     1    2.2976E+01  3.2316E-01   2.2653E+01  0.000E+00  0.000E+00  0.000E+00  1.07308E+03  1.143E+00  1.200E+01  7.800E-02  1.381E+00
   1    5    6     2     2    2.2653E+01  2.4807E-01   2.2405E+01  0.000E+00  0.000E+00  0.000E+00  1.06764E+03  1.134E+00  1.200E+01  6.000E-02  1.378E+00
   1    6    6     2     3    2.2405E+01  2.4762E-01   2.2157E+01  0.000E+00  0.000E+00  0.000E+00  1.06292E+03  1.127E+00  1.200E+01  6.000E-02  1.376E+00
   1    7    6     2     4    2.2157E+01  2.4717E-01   2.1910E+01  0.000E+00  0.000E+00  0.000E+00  1.05819E+03  1.119E+00  1.200E+01  6.000E-02  1.373E+00
   1    8    6     2     5    2.1910E+01  2.4671E-01   2.1664E+01  0.000E+00  0.000E+00  0.000E+00  1.05347E+03  1.112E+00  1.200E+01  6.000E-02  1.371E+00
   1    3    5     3     1    2.0000E+00  2.8252E-01   1.7175E+00  0.000E+00  0.000E+00  0.000E+00  1.07555E+03  1.909E+00  9.636E+00  7.227E-02  1.955E+00
   1    3    6     3     2    1.7175E+00  2.4905E-01   1.4684E+00  0.000E+00  0.000E+00  0.000E+00  1.07264E+03  1.727E+00  8.909E+00  6.682E-02  1.864E+00
   1    3    7     3     3    1.4684E+00  1.9718E-01   1.2712E+00  0.000E+00  0.000E+00  0.000E+00  1.06987E+03  1.555E+00  8.218E+00  5.547E-02  1.777E+00
   1    4    8     3     4    1.2712E+00  2.2567E-01   1.0456E+00  0.000E+00  0.000E+00  0.000E+00  1.06682E+03  1.364E+00  7.455E+00  6.709E-02  1.682E+00
   1    5    8     3     5    1.0456E+00  1.5790E-01   8.8768E-01  0.000E+00  0.000E+00  0.000E+00  1.06362E+03  1.164E+00  6.655E+00  4.991E-02  1.582E+00
   1    6    8     3     6    8.8768E-01  5.5980E-02   8.3170E-01  0.000E+00  0.000E+00  0.000E+00  1.06158E+03  1.036E+00  6.145E+00  1.844E-02  1.518E+00
   1    5   10     4     1    1.0000E+01  9.0919E-02   9.9091E+00  0.000E+00  0.000E+00  0.000E+00  1.07836E+03  6.368E-01  1.000E+01  2.500E-02  1.212E+00
   1    5    9     4     2    9.9091E+00  1.8158E-01   9.7275E+00  0.000E+00  0.000E+00  0.000E+00  1.07154E+03  6.315E-01  1.000E+01  5.000E-02  1.211E+00
   1    6    8     4     3    9.7275E+00  1.2689E-01   9.6006E+00  0.000E+00  0.000E+00  0.000E+00  1.06381E+03  6.256E-01  1.000E+01  3.500E-02  1.209E+00
   1    6    8     5     1    1.0432E+01  2.2686E-01   1.0205E+01  0.000E+00  0.000E+00  0.000E+00  1.05868E+03  6.790E-01  1.542E+01  6.166E-02  1.226E+00
   1    7    7     5     2    1.0205E+01  2.7894E-01   9.9265E+00  0.000E+00  0.000E+00  0.000E+00  1.05417E+03  6.732E-01  1.519E+01  7.594E-02  1.224E+00
   1    8    7     5     3    9.9265E+00  1.9221E-01   9.7343E+00  0.000E+00  0.000E+00  0.000E+00  1.04992E+03  6.676E-01  1.497E+01  5.241E-02  1.223E+00
   1    8    6     5     4    9.7343E+00  1.3577E-01   9.5985E+00  0.000E+00  0.000E+00  0.000E+00  1.04691E+03  6.637E-01  1.482E+01  3.706E-02  1.221E+00
   1    9    6     6     1    3.1262E+01  2.6357E-01   3.0999E+01  0.000E+00  0.000E+00  0.000E+00  1.04412E+03  1.393E+00  1.200E+01  6.000E-02  1.464E+00
   1   10    7     6     2    3.0999E+01  2.6314E-01   3.0735E+01  0.000E+00  0.000E+00  0.000E+00  1.03957E+03  1.386E+00  1.200E+01  6.000E-02  1.462E+00
   1   11    7     6     3    3.0735E+01  2.6272E-01   3.0473E+01  0.000E+00  0.000E+00  0.000E+00  1.03501E+03  1.379E+00  1.200E+01  6.000E-02  1.460E+00
   1   12    7     6     4    3.0473E+01  2.6229E-01   3.0210E+01  0.000E+00  0.000E+00  0.000E+00  1.03046E+03  1.371E+00  1.200E+01  6.000E-02  1.457E+00
   1   13    7     6     5    3.0210E+01  1.2288E-02   3.0198E+01  0.000E+00  0.000E+00  0.000E+00  1.02728E+03  1.368E+00  1.200E+01  2.400E-02  1.707E-01
   1   14    9     7     1    1.5000E+02  1.3690E+00   1.4863E+02  0.000E+00  0.000E+00  0.000E+00  1.03987E+03  2.288E+00  5.529E+01  5.593E-01  8.159E-01
   1   13    8     7     2    1.4863E+02  1.9373E+00   1.4669E+02  0.000E+00  0.000E+00  0.000E+00  1.03478E+03  2.279E+00  5.525E+01  6.148E-01  1.050E+00
   1   13    7     7     3    1.4669E+02  1.6326E+00   1.4506E+02  0.000E+00  0.000E+00  0.000E+00  1.02969E+03  2.269E+00  5.521E+01  5.584E-01  9.746E-01
   1   13    6     8     1    1.7526E+02  1.0990E+00   1.7416E+02  0.000E+00  0.000E+00  0.000E+00  1.02486E+03  2.983E+00  4.325E+01  4.407E-01  8.313E-01
   1   13    5     8     2    1.7416E+02  3.2964E-01   1.7383E+02  0.000E+00  0.000E+00  0.000E+00  1.01860E+03  2.978E+00  4.318E+01  4.400E-01  2.497E-01
   1   13    4     8     3    1.7383E+02 -1.9380E+00   1.7577E+02  0.000E+00  0.000E+00  0.000E+00  1.01236E+03  2.983E+00  4.326E+01  4.408E+00 -1.466E-01
   1   13    3     8     4    1.7577E+02 -3.4074E+00   1.7918E+02  0.000E+00  0.000E+00  0.000E+00  1.00613E+03  3.000E+00  4.350E+01  4.433E+00 -2.562E-01
   1   13    2     8     5    1.7918E+02 -2.5027E+00   1.8168E+02  0.000E+00  0.000E+00  0.000E+00  9.99894E+02  3.019E+00  4.377E+01  4.461E+00 -1.870E-01
   1   13    1     8     6    1.8168E+02 -1.9487E+00   1.8363E+02  0.000E+00  0.000E+00  0.000E+00  9.94908E+02  3.033E+00  4.398E+01  2.689E+00 -2.416E-01
   1    8    6     9     1    0.0000E+00  0.0000E+00   0.0000E+00  0.000E+00  0.000E+00  0.000E+00  1.07875E+03  0.000E+00  4.000E+00  0.000E+00  1.000E+00
   1    8    5     9     2    0.0000E+00  0.0000E+00   0.0000E+00  0.000E+00  0.000E+00  0.000E+00  1.07825E+03  0.000E+00  4.000E+00  0.000E+00  1.000E+00





UNSATURATED ZONE PACKAGE VOLUMETRIC BUDGET FOR  TIME STEP    30 STRESS PERIOD   35
  ------------------------------------------------------------------------------



     CUMULATIVE VOLUMES      L**3       RATES FOR THIS TIME STEP      L**3/T
     ------------------                 ------------------------

           IN:                                      IN:
           ---                                      ---
        INFILTRATION =  9755079029.0187          INFILTRATION =           0.8475

          OUT:                                     OUT:
          ----                                     ----
              UZF ET =  1282159546.9630                UZF ET =           1.5675
        UZF RECHARGE =  7968530231.0307          UZF RECHARGE =          56.3474

            IN - OUT =   504389251.0251              IN - OUT =         -57.0674

          STORAGE:                                 STORAGE:
          --------                                 --------
      STORAGE CHANGE =   505702037.2012        STORAGE CHANGE =         -57.0674

 PERCENT DISCREPANCY IS DIFFERENCE BETWEEN IN-OUT MINUS CHANGE IN STORAGE
 DIVIDED BY THE AVERAGE OF IN AND OUT TIMES 100

 PERCENT DISCREPANCY =          -0.00     PERCENT DISCREPANCY =           0.00






1
  VOLUMETRIC BUDGET FOR AGRICULTURAL FIELDS AT  END OF TIME STEP   30, STRESS PERIOD  35
  ------------------------------------------------------------------------------

     CUMULATIVE VOLUMES      L**3       RATES FOR THIS TIME STEP      L**3/T
     ------------------                 ------------------------

           IN:                                      IN:
           ---                                      ---
               AG WELLS  =  8726962176.0000                 AG WELLS  =           0.0000
      DIVERSION SEGMENTS =   952273088.0000        DIVERSION SEGMENTS =           0.0000
       IRRIGATION PONDS  =           0.0000         IRRIGATION PONDS  =           0.0000
           GW IRRIGATION =           0.0000             GW IRRIGATION =           0.0000
           SW IRRIGATION =           0.0000             SW IRRIGATION =           0.0000
        SYSTEM LOSSES GW =           0.0000          SYSTEM LOSSES GW =           0.0000
        SYSTEM LOSSES SW =           0.0000          SYSTEM LOSSES SW =           0.0000

                TOTAL IN =  9679235072.0000                  TOTAL IN =           0.0000

          OUT:                                     OUT:
          ----                                     ----
               AG WELLS  =           0.0000                 AG WELLS  =           0.0000
      DIVERSION SEGMENTS =           0.0000        DIVERSION SEGMENTS =           0.0000
       IRRIGATION PONDS  =           0.0000         IRRIGATION PONDS  =           0.0000
           GW IRRIGATION =  8726962176.0000             GW IRRIGATION =           0.0000
           SW IRRIGATION =   952291008.0000             SW IRRIGATION =           0.0000
        SYSTEM LOSSES GW =           0.0000          SYSTEM LOSSES GW =           0.0000
        SYSTEM LOSSES SW =           0.0000          SYSTEM LOSSES SW =           0.0000

               TOTAL OUT =  9679253504.0000                 TOTAL OUT =           0.0000

                IN - OUT =      -18432.0000                  IN - OUT =           0.0000

     PERCENT DISCREPANCY =          -0.00         PERCENT DISCREPANCY =           0.00



1
  VOLUMETRIC BUDGET FOR ENTIRE MODEL AT END OF TIME STEP   30, STRESS PERIOD  35
  ------------------------------------------------------------------------------

     CUMULATIVE VOLUMES      L**3       RATES FOR THIS TIME STEP      L**3/T
     ------------------                 ------------------------

           IN:                                      IN:
           ---                                      ---
             STORAGE     =  7096892928.0000               STORAGE     =           2.5641
       CONSTANT HEAD     =           0.0000         CONSTANT HEAD     =           0.0000
     HEAD DEP BOUNDS     =    25645166.0000       HEAD DEP BOUNDS     =           0.2880
      STREAM LEAKAGE     =  1103504384.0000        STREAM LEAKAGE     =          12.4188
        UZF RECHARGE     =  7968529920.0000          UZF RECHARGE     =          56.3474
               GW ET     =           0.0000                 GW ET     =           0.0000
     SURFACE LEAKAGE     =           0.0000       SURFACE LEAKAGE     =           0.0000
           AG WELLS      =           0.0000             AG WELLS      =           0.0000

                TOTAL IN = 16194572288.0000                  TOTAL IN =          71.6183

          OUT:                                     OUT:
          ----                                     ----
             STORAGE     =  6521436672.0000               STORAGE     =          61.5269
       CONSTANT HEAD     =           0.0000         CONSTANT HEAD     =           0.0000
     HEAD DEP BOUNDS     =    26003176.0000       HEAD DEP BOUNDS     =           0.2900
      STREAM LEAKAGE     =   918644928.0000        STREAM LEAKAGE     =           9.7969
        UZF RECHARGE     =           0.0000          UZF RECHARGE     =           0.0000
               GW ET     =     1409387.3750                 GW ET     =           0.0000
     SURFACE LEAKAGE     =           0.0000       SURFACE LEAKAGE     =           0.0000
           AG WELLS      =  8726962176.0000             AG WELLS      =           0.0000

               TOTAL OUT = 16194455552.0000                 TOTAL OUT =          71.6139

                IN - OUT =      116736.0000                  IN - OUT =       4.4174E-03

     PERCENT DISCREPANCY =           0.00         PERCENT DISCREPANCY =           0.01






         TIME SUMMARY AT END OF TIME STEP   30 IN STRESS PERIOD   35
                    SECONDS     MINUTES      HOURS       DAYS        YEARS
                    -----------------------------------------------------------
   TIME STEP LENGTH  87667.      1461.1      24.352      1.0147     2.77799E-03
 STRESS PERIOD TIME 2.63000E+06  43833.      730.56      30.440     8.33397E-02
         TOTAL TIME 8.95061E+07 1.49177E+06  24863.      1036.0      2.8363    
1
1
                            STRESS PERIOD NO.   36, LENGTH =   2630000.    
                            -----------------------------------------------

                              NUMBER OF TIME STEPS =    30

                               MULTIPLIER FOR DELT =     1.000

                            INITIAL TIME STEP SIZE =   87666.66    

 REUSING NON-PARAMETER GHB CELLS FROM LAST STRESS PERIOD

      2 GHB CELLS

 REUSING STREAM SEGMENT DATA FROM LAST STRESS PERIOD



            AREAL INFILTRATION RATE
 READING ON UNIT   19 WITH FORMAT: (FREE)              

            1           2           3           4           5           6           7           8           9          10
 ........................................................................................................................
   1   1.0000E-10  2.0000E-10   0.000       0.000       0.000       0.000       0.000       0.000       0.000       0.000    
   2   2.0000E-10  1.0000E-10  2.0000E-10   0.000       0.000      8.0000E-10  8.0000E-10  5.0000E-10   0.000       0.000    
   3    0.000      5.0000E-10  1.0000E-10  1.0000E-10  8.0000E-10  8.0000E-10  5.0000E-10  5.0000E-10   0.000       0.000    
   4   8.0000E-10  5.0000E-10  1.0000E-10  1.0000E-10  1.0000E-10  1.0000E-10  1.0000E-10  1.0000E-10  2.0000E-10   0.000    
   5   8.0000E-10  5.0000E-10  1.0000E-10  1.0000E-10  1.0000E-10  1.0000E-10  1.0000E-10  1.0000E-10  1.0000E-10  1.0000E-10
   6   8.0000E-10  5.0000E-10  5.0000E-10  2.0000E-10  2.0000E-10  1.0000E-10  1.0000E-10  1.0000E-10  1.0000E-10  5.0000E-10
   7   8.0000E-10  5.0000E-10  5.0000E-10  2.0000E-10  2.0000E-10  1.0000E-10  1.0000E-10  2.0000E-10  2.0000E-10   0.000    
   8    0.000      5.0000E-10  5.0000E-10  2.0000E-10  2.0000E-10  1.0000E-10  1.0000E-10  2.0000E-10  5.0000E-10   0.000    
   9    0.000      5.0000E-10  5.0000E-10  2.0000E-10  2.0000E-10  1.0000E-10  1.0000E-10  2.0000E-10  5.0000E-10   0.000    
  10    0.000      5.0000E-10  5.0000E-10  2.0000E-10  2.0000E-10  1.0000E-10  1.0000E-10  2.0000E-10  5.0000E-10  8.0000E-10
  11    0.000      1.0000E-10  1.0000E-10  1.0000E-10  1.0000E-10  1.0000E-10  1.0000E-10  2.0000E-10  5.0000E-10   0.000    
  12   1.0000E-10  1.0000E-10  1.0000E-10  1.0000E-10  1.0000E-10  1.0000E-10  1.0000E-10  1.0000E-10  2.0000E-10   0.000    
  13   1.0000E-10  1.0000E-10  2.0000E-10  2.0000E-10  2.0000E-10  2.0000E-10  2.0000E-10  1.0000E-10  1.0000E-10   0.000    
  14    0.000      2.0000E-10  5.0000E-10  5.0000E-10  5.0000E-10  5.0000E-10  5.0000E-10  2.0000E-10  1.0000E-10   0.000    
  15    0.000       0.000      8.0000E-10  8.0000E-10  8.0000E-10  8.0000E-10   0.000       0.000       0.000       0.000    

                  ET RATE =  5.000000E-10

 USING ET EXTINCTION DEPTH FROM PREVIOUS STRESS PERIOD. CURRENT PERIOD IS:      36

 USING EXTINCTION WATER CONTENT FROM PREVIOUS STRESS PERIOD. CURRENT PERIOD IS:      36

 USING AIR ENTRY PRESSURE FROM PREVIOUS STRESS PERIOD. CURRENT PERIOD IS:      36

 USING ROOT PRESSURE HEAD FROM PREVIOUS STRESS PERIOD. CURRENT PERIOD IS:      36

 USING ROOT ACTIVITY FROM PREVIOUS STRESS PERIOD. CURRENT PERIOD IS:      36

 PROCESSING AG STRESS PERIOD DATA

 READING AG STRESS PERIOD DATA

 READING IRRIGATION SEGMENT

 READING IRRIGATION WELL

 READING SUPPLEMENTAL WELL

 NO IRRPOND OR REUSING IRRPOND DATA FROM LAST STRESS PERIOD

 END PROCESSING AG STRESS PERIOD DATA OPTIONS
 
 SOLVING FOR HEAD 
                                                   Max.-Head-Change                         Max.-Flux-Residual
  Residual-Control   Outer-Iter.   Inner-Iter.     Column Row Layer    Maximum-Head-Change  Column Row Layer    Maximum-Flux-Residual          L2-NORM 
          0                 1           2             4    6     1       0.1097482817E+00       4    6    1         0.5900713747E+01      0.9099387274E+01
          0                 2           2             4    6     1       0.4368170733E-01       4    6    1         0.2369986101E+01      0.2727993918E+01
          0                 3           2             4    6     1       0.1738214995E-01       4    6    1         0.9412750282E+00      0.1043200989E+01
          0                 4           2             4    6     1       0.6915384785E-02       4    6    1         0.3746672844E+00      0.4109900382E+00
          0                 5           2             4    6     1       0.2750699572E-02       4    6    1         0.1490481652E+00      0.1621363524E+00
          0                 6           2             4    6     1       0.1093929107E-02       4    6    1         0.5928409389E-01      0.6402363222E-01
          0                 7           2             4    6     1       0.4349702271E-03       4    6    1         0.2357589311E-01      0.2530022882E-01
          0                 8           2             4    6     1       0.1729255461E-03       4    6    1         0.9373970345E-02      0.1000426981E-01
          0                 9           1             4    6     1       0.6873735474E-04       4    6    1         0.3726569294E-02      0.3958039131E-02

    ------------------------------------------------
       NWT REQUIRED            9 OUTER ITERATIONS 
       AND A TOTAL OF         17 INNER ITERATIONS.
    ------------------------------------------------

 NO OUTPUT CONTROL FOR STRESS PERIOD   36   TIME STEP    1
 
 SOLVING FOR HEAD 
                                                   Max.-Head-Change                         Max.-Flux-Residual
  Residual-Control   Outer-Iter.   Inner-Iter.     Column Row Layer    Maximum-Head-Change  Column Row Layer    Maximum-Flux-Residual          L2-NORM 
          0                 1           2             4    6     1       0.9995556566E-01       4    6    1         0.5370898131E+01      0.8734268813E+01
          0                 2           2             4    6     1       0.3559416492E-01       4    6    1         0.1931276273E+01      0.2340698443E+01
          0                 3           2             4    6     1       0.1268540139E-01       4    6    1         0.6859828425E+00      0.8124583272E+00
          0                 4           2             4    6     1       0.4524576095E-02       4    6    1         0.2446390163E+00      0.2933240453E+00
          0                 5           2             4    6     1       0.1615075829E-02       4    6    1         0.8726739900E-01      0.1060983698E+00
          0                 6           2             4    6     1       0.5769562720E-03       4    6    1         0.3115619300E-01      0.3842439008E-01
          0                 7           2             4    6     1       0.2062630621E-03       4    6    1         0.1113184331E-01      0.1393021320E-01
          0                 8           1             4    6     1       0.7379421362E-04       4    6    1         0.3980313020E-02      0.5055093118E-02

    ------------------------------------------------
       NWT REQUIRED            8 OUTER ITERATIONS 
       AND A TOTAL OF         15 INNER ITERATIONS.
    ------------------------------------------------

 NO OUTPUT CONTROL FOR STRESS PERIOD   36   TIME STEP    2
 
 SOLVING FOR HEAD 
                                                   Max.-Head-Change                         Max.-Flux-Residual
  Residual-Control   Outer-Iter.   Inner-Iter.     Column Row Layer    Maximum-Head-Change  Column Row Layer    Maximum-Flux-Residual          L2-NORM 
          0                 1           2             3    7     1       0.4860167214E-01       4    5    1         0.2326540533E+01      0.6928514080E+01
          0                 2           2             4    7     1       0.1356246845E-01       4    7    1         0.7219461762E+00      0.1347911690E+01
          0                 3           2             4    7     1       0.4948228358E-02       4    7    1         0.2627680435E+00      0.4374131505E+00
          0                 4           2             4    7     1       0.1806075467E-02       4    7    1         0.9591422689E-01      0.1596285926E+00
          0                 5           2             4    7     1       0.6594545851E-03       4    7    1         0.3500970857E-01      0.5845245824E-01
          0                 6           2             4    7     1       0.2408714362E-03       4    7    1         0.1278421267E-01      0.2141151354E-01
          0                 7           1             4    7     1       0.8800886933E-04       4    7    1         0.4669885267E-02      0.7843974196E-02

    ------------------------------------------------
       NWT REQUIRED            7 OUTER ITERATIONS 
       AND A TOTAL OF         13 INNER ITERATIONS.
    ------------------------------------------------

 NO OUTPUT CONTROL FOR STRESS PERIOD   36   TIME STEP    3
 
 SOLVING FOR HEAD 
                                                   Max.-Head-Change                         Max.-Flux-Residual
  Residual-Control   Outer-Iter.   Inner-Iter.     Column Row Layer    Maximum-Head-Change  Column Row Layer    Maximum-Flux-Residual          L2-NORM 
          0                 1           2             3    7     1       0.4852238075E-01       4    5    1         0.2278843026E+01      0.6859421762E+01
          0                 2           2             4    7     1       0.1315762989E-01       4    7    1         0.6996650651E+00      0.1337408594E+01
          0                 3           2             4    7     1       0.4806997845E-02       4    7    1         0.2549986437E+00      0.4343820445E+00
          0                 4           2             4    7     1       0.1756782777E-02       4    7    1         0.9320349743E-01      0.1585724463E+00
          0                 5           2             4    7     1       0.6422419563E-03       4    7    1         0.3406350169E-01      0.5807952078E-01
          0                 6           2             4    7     1       0.2348579483E-03       4    7    1         0.1245376853E-01      0.2127951294E-01
          0                 7           1             4    7     1       0.8590690987E-04       4    7    1         0.4554426930E-02      0.7797138502E-02

    ------------------------------------------------
       NWT REQUIRED            7 OUTER ITERATIONS 
       AND A TOTAL OF         13 INNER ITERATIONS.
    ------------------------------------------------

 NO OUTPUT CONTROL FOR STRESS PERIOD   36   TIME STEP    4
 
 SOLVING FOR HEAD 
                                                   Max.-Head-Change                         Max.-Flux-Residual
  Residual-Control   Outer-Iter.   Inner-Iter.     Column Row Layer    Maximum-Head-Change  Column Row Layer    Maximum-Flux-Residual          L2-NORM 
          0                 1           2             3    7     1       0.4842489155E-01       4    5    1         0.2234005071E+01      0.6795666718E+01
          0                 2           2             4    7     1       0.1279006343E-01       4    7    1         0.6794525380E+00      0.1327846095E+01
          0                 3           2             4    7     1       0.4678619540E-02       4    7    1         0.2479428016E+00      0.4316260465E+00
          0                 4           2             4    7     1       0.1711921271E-02       4    7    1         0.9073879835E-01      0.1576038546E+00
          0                 5           2             4    7     1       0.6265568908E-03       4    7    1         0.3320211944E-01      0.5773466750E-01
          0                 6           2             4    7     1       0.2293709680E-03       4    7    1         0.1215256499E-01      0.2115645642E-01
          0                 7           1             4    7     1       0.8398638695E-04       4    7    1         0.4449046619E-02      0.7753148797E-02

    ------------------------------------------------
       NWT REQUIRED            7 OUTER ITERATIONS 
       AND A TOTAL OF         13 INNER ITERATIONS.
    ------------------------------------------------

 NO OUTPUT CONTROL FOR STRESS PERIOD   36   TIME STEP    5
 
 SOLVING FOR HEAD 
                                                   Max.-Head-Change                         Max.-Flux-Residual
  Residual-Control   Outer-Iter.   Inner-Iter.     Column Row Layer    Maximum-Head-Change  Column Row Layer    Maximum-Flux-Residual          L2-NORM 
          0                 1           2             3    7     1       0.4831168518E-01       4    5    1         0.2191826685E+01      0.6736550909E+01
          0                 2           2             4    7     1       0.1245599627E-01       4    7    1         0.6610990530E+00      0.1319119917E+01
          0                 3           2             4    7     1       0.4561794251E-02       4    7    1         0.2415283059E+00      0.4290762812E+00
          0                 4           2             4    7     1       0.1671043610E-02       4    7    1         0.8849526694E-01      0.1566999152E+00
          0                 5           2             4    7     1       0.6122453801E-03       4    7    1         0.3241700113E-01      0.5741040082E-01
          0                 6           2             4    7     1       0.2243574826E-03       4    7    1         0.1187765494E-01      0.2103992227E-01
          0                 7           1             4    7     1       0.8222905599E-04       4    7    1         0.4352729881E-02      0.7711203343E-02

    ------------------------------------------------
       NWT REQUIRED            7 OUTER ITERATIONS 
       AND A TOTAL OF         13 INNER ITERATIONS.
    ------------------------------------------------

 NO OUTPUT CONTROL FOR STRESS PERIOD   36   TIME STEP    6
 
 SOLVING FOR HEAD 
                                                   Max.-Head-Change                         Max.-Flux-Residual
  Residual-Control   Outer-Iter.   Inner-Iter.     Column Row Layer    Maximum-Head-Change  Column Row Layer    Maximum-Flux-Residual          L2-NORM 
          0                 1           2             3    7     1       0.4818395081E-01       4    5    1         0.2152079410E+01      0.6681294393E+01
          0                 2           2             4    7     1       0.1215127122E-01       4    7    1         0.6443924310E+00      0.1310952766E+01
          0                 3           2             4    7     1       0.4455086294E-02       4    7    1         0.2356742649E+00      0.4266738839E+00
          0                 4           2             4    7     1       0.1633653970E-02       4    7    1         0.8644546382E-01      0.1558417926E+00
          0                 5           2             4    7     1       0.5991361854E-03       4    7    1         0.3169865001E-01      0.5710053384E-01
          0                 6           2             4    7     1       0.2197583532E-03       4    7    1         0.1162575937E-01      0.2092787016E-01
          0                 7           1             4    7     1       0.8061449291E-04       4    7    1         0.4264344272E-02      0.7670636629E-02

    ------------------------------------------------
       NWT REQUIRED            7 OUTER ITERATIONS 
       AND A TOTAL OF         13 INNER ITERATIONS.
    ------------------------------------------------

 NO OUTPUT CONTROL FOR STRESS PERIOD   36   TIME STEP    7
 
 SOLVING FOR HEAD 
                                                   Max.-Head-Change                         Max.-Flux-Residual
  Residual-Control   Outer-Iter.   Inner-Iter.     Column Row Layer    Maximum-Head-Change  Column Row Layer    Maximum-Flux-Residual          L2-NORM 
          0                 1           2             3    7     1       0.4788217408E-01       4    5    1         0.2114611126E+01      0.6629049408E+01
          0                 2           2             4    7     1       0.1187341280E-01       4    7    1         0.6291352069E+00      0.1302882512E+01
          0                 3           2             4    7     1       0.4357647888E-02       4    7    1         0.2303375109E+00      0.4243756692E+00
          0                 4           2             4    7     1       0.1599462172E-02       4    7    1         0.8457301251E-01      0.1550167019E+00
          0                 5           2             4    7     1       0.5871300520E-03       4    7    1         0.3104152662E-01      0.5680098379E-01
          0                 6           2             4    7     1       0.2155396542E-03       4    7    1         0.1139498111E-01      0.2081899429E-01
          0                 7           1             4    7     1       0.7913111207E-04       4    7    1         0.4183241550E-02      0.7631033999E-02

    ------------------------------------------------
       NWT REQUIRED            7 OUTER ITERATIONS 
       AND A TOTAL OF         13 INNER ITERATIONS.
    ------------------------------------------------

 NO OUTPUT CONTROL FOR STRESS PERIOD   36   TIME STEP    8
 
 SOLVING FOR HEAD 
                                                   Max.-Head-Change                         Max.-Flux-Residual
  Residual-Control   Outer-Iter.   Inner-Iter.     Column Row Layer    Maximum-Head-Change  Column Row Layer    Maximum-Flux-Residual          L2-NORM 
          0                 1           2             3    7     1       0.4764386478E-01       4    5    1         0.2079253112E+01      0.6579794270E+01
          0                 2           2             4    7     1       0.1161903023E-01       4    7    1         0.6152009270E+00      0.1295348734E+01
          0                 3           2             4    7     1       0.4268307057E-02       4    7    1         0.2254487980E+00      0.4221515653E+00
          0                 4           2             4    7     1       0.1568063115E-02       4    7    1         0.8285564295E-01      0.1542130132E+00
          0                 5           2             4    7     1       0.5760869403E-03       4    7    1         0.3043786494E-01      0.5650788743E-01
          0                 6           2             4    7     1       0.2116529736E-03       4    7    1         0.1118263833E-01      0.2071202728E-01
          0                 7           1             4    7     1       0.7776217605E-04       4    7    1         0.4108494468E-02      0.7591979123E-02

    ------------------------------------------------
       NWT REQUIRED            7 OUTER ITERATIONS 
       AND A TOTAL OF         13 INNER ITERATIONS.
    ------------------------------------------------

 NO OUTPUT CONTROL FOR STRESS PERIOD   36   TIME STEP    9
 
 SOLVING FOR HEAD 
                                                   Max.-Head-Change                         Max.-Flux-Residual
  Residual-Control   Outer-Iter.   Inner-Iter.     Column Row Layer    Maximum-Head-Change  Column Row Layer    Maximum-Flux-Residual          L2-NORM 
          0                 1           2             3    7     1       0.4739894568E-01       6    7    1         0.2047481624E+01      0.6533250368E+01
          0                 2           2             4    7     1       0.1138561828E-01       4    7    1         0.6024303900E+00      0.1288060354E+01
          0                 3           2             4    7     1       0.4186198853E-02       4    7    1         0.2209615730E+00      0.4199717568E+00
          0                 4           2             4    7     1       0.1539158167E-02       4    7    1         0.8127673450E-01      0.1534216775E+00
          0                 5           2             4    7     1       0.5659037520E-03       4    7    1         0.2988194904E-01      0.5621829338E-01
          0                 6           2             4    7     1       0.2080627186E-03       4    7    1         0.1098675671E-01      0.2060600265E-01
          0                 7           1             4    7     1       0.7649539788E-04       4    7    1         0.4039421470E-02      0.7553156423E-02

    ------------------------------------------------
       NWT REQUIRED            7 OUTER ITERATIONS 
       AND A TOTAL OF         13 INNER ITERATIONS.
    ------------------------------------------------

 NO OUTPUT CONTROL FOR STRESS PERIOD   36   TIME STEP   10
 
 SOLVING FOR HEAD 
                                                   Max.-Head-Change                         Max.-Flux-Residual
  Residual-Control   Outer-Iter.   Inner-Iter.     Column Row Layer    Maximum-Head-Change  Column Row Layer    Maximum-Flux-Residual          L2-NORM 
          0                 1           2             3    7     1       0.4714858364E-01       6    7    1         0.2022858416E+01      0.6489111011E+01
          0                 2           2             4    7     1       0.1117105100E-01       4    7    1         0.5907052679E+00      0.1280958974E+01
          0                 3           2             4    7     1       0.4110593043E-02       4    7    1         0.2168351694E+00      0.4178189538E+00
          0                 4           2             4    7     1       0.1512496587E-02       4    7    1         0.7982232061E-01      0.1526372846E+00
          0                 5           2             4    7     1       0.5564944177E-03       4    7    1         0.2936898342E-01      0.5593050028E-01
          0                 6           2             4    7     1       0.2047393581E-03       4    7    1         0.1080569037E-01      0.2050039071E-01
          0                 7           1             4    7     1       0.7532065032E-04       4    7    1         0.3975457910E-02      0.7514403247E-02

    ------------------------------------------------
       NWT REQUIRED            7 OUTER ITERATIONS 
       AND A TOTAL OF         13 INNER ITERATIONS.
    ------------------------------------------------

 NO OUTPUT CONTROL FOR STRESS PERIOD   36   TIME STEP   11
 
 SOLVING FOR HEAD 
                                                   Max.-Head-Change                         Max.-Flux-Residual
  Residual-Control   Outer-Iter.   Inner-Iter.     Column Row Layer    Maximum-Head-Change  Column Row Layer    Maximum-Flux-Residual          L2-NORM 
          0                 1           2             3    7     1       0.4689405331E-01       6    7    1         0.1999035819E+01      0.6447100834E+01
          0                 2           2             4    7     1       0.1097325243E-01       4    7    1         0.5799103310E+00      0.1274001484E+01
          0                 3           2             4    7     1       0.4040774025E-02       4    7    1         0.2130298458E+00      0.4156813237E+00
          0                 4           2             4    7     1       0.1487831755E-02       4    7    1         0.7847870362E-01      0.1518561900E+00
          0                 5           2             4    7     1       0.5477739668E-03       4    7    1         0.2889424764E-01      0.5564337812E-01
          0                 6           2             4    7     1       0.2016536239E-03       4    7    1         0.1063781295E-01      0.2039484491E-01
          0                 7           1             4    7     1       0.7422785464E-04       4    7    1         0.3916043622E-02      0.7475613461E-02

    ------------------------------------------------
       NWT REQUIRED            7 OUTER ITERATIONS 
       AND A TOTAL OF         13 INNER ITERATIONS.
    ------------------------------------------------

 NO OUTPUT CONTROL FOR STRESS PERIOD   36   TIME STEP   12
 
 SOLVING FOR HEAD 
                                                   Max.-Head-Change                         Max.-Flux-Residual
  Residual-Control   Outer-Iter.   Inner-Iter.     Column Row Layer    Maximum-Head-Change  Column Row Layer    Maximum-Flux-Residual          L2-NORM 
          0                 1           2             3    7     1       0.4663555705E-01       6    7    1         0.1975999260E+01      0.6446766106E+01
          0                 2           2             4    7     1       0.1076729715E-01       4    7    1         0.5694825050E+00      0.1231037854E+01
          0                 3           2             4    7     1       0.3958740366E-02       4    7    1         0.2089863559E+00      0.3867414303E+00
          0                 4           2             4    7     1       0.1454451365E-02       4    7    1         0.7685725979E-01      0.1375264333E+00
          0                 5           2             4    7     1       0.5340555672E-03       4    7    1         0.2823206371E-01      0.4943948108E-01
          0                 6           2             4    7     1       0.1960026713E-03       4    7    1         0.1036525621E-01      0.1786484070E-01
          0                 7           1             4    7     1       0.7190531849E-04       4    7    1         0.3803749329E-02      0.6478244746E-02

    ------------------------------------------------
       NWT REQUIRED            7 OUTER ITERATIONS 
       AND A TOTAL OF         13 INNER ITERATIONS.
    ------------------------------------------------

 NO OUTPUT CONTROL FOR STRESS PERIOD   36   TIME STEP   13
 
 SOLVING FOR HEAD 
                                                   Max.-Head-Change                         Max.-Flux-Residual
  Residual-Control   Outer-Iter.   Inner-Iter.     Column Row Layer    Maximum-Head-Change  Column Row Layer    Maximum-Flux-Residual          L2-NORM 
          0                 1           2             3    7     1       0.4637306371E-01       6    7    1         0.1951229099E+01      0.6319336881E+01
          0                 2           2             4    7     1       0.1056007543E-01       4    7    1         0.5586828357E+00      0.1193662220E+01
          0                 3           2             4    7     1       0.3881545252E-02       4    7    1         0.2049487834E+00      0.3750159436E+00
          0                 4           2             4    7     1       0.1425824542E-02       4    7    1         0.7535471458E-01      0.1339037236E+00
          0                 5           2             4    7     1       0.5234778742E-03       4    7    1         0.2767537945E-01      0.4828537816E-01
          0                 6           2             4    7     1       0.1921054272E-03       4    7    1         0.1015970915E-01      0.1748642784E-01
          0                 7           1             4    7     1       0.7047273521E-04       4    7    1         0.3728061798E-02      0.6350944474E-02

    ------------------------------------------------
       NWT REQUIRED            7 OUTER ITERATIONS 
       AND A TOTAL OF         13 INNER ITERATIONS.
    ------------------------------------------------

 NO OUTPUT CONTROL FOR STRESS PERIOD   36   TIME STEP   14
 
 SOLVING FOR HEAD 
                                                   Max.-Head-Change                         Max.-Flux-Residual
  Residual-Control   Outer-Iter.   Inner-Iter.     Column Row Layer    Maximum-Head-Change  Column Row Layer    Maximum-Flux-Residual          L2-NORM 
          0                 1           2             3    7     1       0.4610569808E-01       6    7    1         0.1925207814E+01      0.6199170800E+01
          0                 2           2             4    7     1       0.1035552785E-01       4    7    1         0.5479492974E+00      0.1158090587E+01
          0                 3           2             4    7     1       0.3805971390E-02       4    7    1         0.2009706303E+00      0.3641457224E+00
          0                 4           2             4    7     1       0.1398016177E-02       4    7    1         0.7388626557E-01      0.1306169205E+00
          0                 5           2             4    7     1       0.5132781542E-03       4    7    1         0.2713549734E-01      0.4725806336E-01
          0                 6           2             4    7     1       0.1883737164E-03       4    7    1         0.9961815914E-02      0.1715509761E-01
          0                 7           1             4    7     1       0.6911013100E-04       4    7    1         0.3655696722E-02      0.6240957618E-02

    ------------------------------------------------
       NWT REQUIRED            7 OUTER ITERATIONS 
       AND A TOTAL OF         13 INNER ITERATIONS.
    ------------------------------------------------

 NO OUTPUT CONTROL FOR STRESS PERIOD   36   TIME STEP   15
 
 SOLVING FOR HEAD 
                                                   Max.-Head-Change                         Max.-Flux-Residual
  Residual-Control   Outer-Iter.   Inner-Iter.     Column Row Layer    Maximum-Head-Change  Column Row Layer    Maximum-Flux-Residual          L2-NORM 
          0                 1           2             3    7     1       0.4583453157E-01       6    7    1         0.1898394163E+01      0.6095425195E+01
          0                 2           2             4    7     1       0.1015558550E-01       4    7    1         0.5374044219E+00      0.1128774869E+01
          0                 3           2             4    7     1       0.3732516067E-02       4    7    1         0.1970873376E+00      0.3551142804E+00
          0                 4           2             4    7     1       0.1371119586E-02       4    7    1         0.7246064790E-01      0.1278488080E+00
          0                 5           2             4    7     1       0.5034551736E-03       4    7    1         0.2661384806E-01      0.4638018594E-01
          0                 6           2             4    7     1       0.1847934926E-03       4    7    1         0.9771402918E-02      0.1686797184E-01
          0                 7           1             4    7     1       0.6780727706E-04       4    7    1         0.3586324603E-02      0.6144477467E-02

    ------------------------------------------------
       NWT REQUIRED            7 OUTER ITERATIONS 
       AND A TOTAL OF         13 INNER ITERATIONS.
    ------------------------------------------------

 NO OUTPUT CONTROL FOR STRESS PERIOD   36   TIME STEP   16
 
 SOLVING FOR HEAD 
                                                   Max.-Head-Change                         Max.-Flux-Residual
  Residual-Control   Outer-Iter.   Inner-Iter.     Column Row Layer    Maximum-Head-Change  Column Row Layer    Maximum-Flux-Residual          L2-NORM 
          0                 1           2             3    7     1       0.4555231077E-01       6    7    1         0.1871161503E+01      0.5964738778E+01
          0                 2           2             4    7     1       0.9528919261E-02       4    7    1         0.5135748374E+00      0.1046098830E+01
          0                 3           2             4    7     1       0.3428223551E-02       4    7    1         0.1839943369E+00      0.3172037903E+00
          0                 4           2             4    7     1       0.1235458511E-02       4    7    1         0.6625546661E-01      0.1122411629E+00
          0                 5           2             4    7     1       0.4458907778E-03       4    7    1         0.2388422103E-01      0.4016254623E-01
          0                 6           2             4    7     1       0.1611342032E-03       4    7    1         0.8622816160E-02      0.1443386599E-01
          0                 7           1             4    7     1       0.5829518342E-04       4    7    1         0.3116918528E-02      0.5203752044E-02

    ------------------------------------------------
       NWT REQUIRED            7 OUTER ITERATIONS 
       AND A TOTAL OF         13 INNER ITERATIONS.
    ------------------------------------------------

 NO OUTPUT CONTROL FOR STRESS PERIOD   36   TIME STEP   17
 
 SOLVING FOR HEAD 
                                                   Max.-Head-Change                         Max.-Flux-Residual
  Residual-Control   Outer-Iter.   Inner-Iter.     Column Row Layer    Maximum-Head-Change  Column Row Layer    Maximum-Flux-Residual          L2-NORM 
          0                 1           2             3    7     1       0.4523797793E-01       6    7    1         0.1843740648E+01      0.6057691775E+01
          0                 2           2             4    7     1       0.8467333164E-02       4    7    1         0.4689977048E+00      0.1074796288E+01
          0                 3           2             4    7     1       0.2950427248E-02       4    7    1         0.1622357402E+00      0.3106165845E+00
          0                 4           2             4    7     1       0.1033335083E-02       4    7    1         0.5663218429E-01      0.1035361223E+00
          0                 5           2             4    7     1       0.3635688629E-03       4    7    1         0.1985512803E-01      0.3521229723E-01
          0                 6           2             4    6     1       0.1320523456E-03       4    6    1         0.7032652879E-02      0.1212373422E-01
          0                 7           1             4    6     1       0.4799397093E-04       4    6    1         0.2557659587E-02      0.4218337759E-02

    ------------------------------------------------
       NWT REQUIRED            7 OUTER ITERATIONS 
       AND A TOTAL OF         13 INNER ITERATIONS.
    ------------------------------------------------

 NO OUTPUT CONTROL FOR STRESS PERIOD   36   TIME STEP   18
 
 SOLVING FOR HEAD 
                                                   Max.-Head-Change                         Max.-Flux-Residual
  Residual-Control   Outer-Iter.   Inner-Iter.     Column Row Layer    Maximum-Head-Change  Column Row Layer    Maximum-Flux-Residual          L2-NORM 
          0                 1           2             3    7     1       0.4455461040E-01       4    5    1         0.1812809545E+01      0.5789494143E+01
          0                 2           2             5    7     1      -0.7589745211E-02       5    7    1        -0.4168470062E+00      0.9474596656E+00
          0                 3           2             4    6     1       0.2509743507E-02       4    6    1         0.1359839982E+00      0.2603147869E+00
          0                 4           2             4    6     1       0.8911774275E-03       4    6    1         0.4836274986E-01      0.8498084528E-01
          0                 5           2             4    6     1       0.3166368825E-03       4    6    1         0.1717122255E-01      0.2826517793E-01
          0                 6           2             4    6     1       0.1125681181E-03       4    6    1         0.6101881319E-02      0.9487935521E-02
          0                 7           1             4    6     1       0.4004201895E-04       4    6    1         0.2169564877E-02      0.3212528925E-02

    ------------------------------------------------
       NWT REQUIRED            7 OUTER ITERATIONS 
       AND A TOTAL OF         13 INNER ITERATIONS.
    ------------------------------------------------

 NO OUTPUT CONTROL FOR STRESS PERIOD   36   TIME STEP   19
 
 SOLVING FOR HEAD 
                                                   Max.-Head-Change                         Max.-Flux-Residual
  Residual-Control   Outer-Iter.   Inner-Iter.     Column Row Layer    Maximum-Head-Change  Column Row Layer    Maximum-Flux-Residual          L2-NORM 
          0                 1           2             3    7     1       0.4351713953E-01       4    5    1         0.1791188892E+01      0.5715816411E+01
          0                 2           2             4    7     1      -0.7947963280E-02       4    7    1        -0.4270313042E+00      0.9337971267E+00
          0                 3           2             4    7     1      -0.2476111497E-02       4    7    1        -0.1336328166E+00      0.2526264130E+00
          0                 4           2             4    6     1       0.7845351676E-03       4    6    1         0.4328222623E-01      0.8046556027E-01
          0                 5           2             4    6     1       0.2731079116E-03       4    6    1         0.1504584001E-01      0.2602645113E-01
          0                 6           1             4    6     1       0.9520914283E-04       4    6    1         0.5239517592E-02      0.8464843225E-02

    ------------------------------------------------
       NWT REQUIRED            6 OUTER ITERATIONS 
       AND A TOTAL OF         11 INNER ITERATIONS.
    ------------------------------------------------

 NO OUTPUT CONTROL FOR STRESS PERIOD   36   TIME STEP   20
 
 SOLVING FOR HEAD 
                                                   Max.-Head-Change                         Max.-Flux-Residual
  Residual-Control   Outer-Iter.   Inner-Iter.     Column Row Layer    Maximum-Head-Change  Column Row Layer    Maximum-Flux-Residual          L2-NORM 
          0                 1           2             3    7     1       0.4243726882E-01       5    6    1        -0.1783479108E+01      0.5828197192E+01
          0                 2           2             5    6     1      -0.9496463738E-02       5    6    1        -0.5191011054E+00      0.1020194875E+01
          0                 3           2             5    6     1      -0.2868281605E-02       5    6    1        -0.1586669478E+00      0.2823233404E+00
          0                 4           2             5    6     1      -0.8658593036E-03       5    6    1        -0.4779777728E-01      0.8813916974E-01
          0                 5           2             5    6     1      -0.2611866061E-03       5    6    1        -0.1443053822E-01      0.2784203940E-01
          0                 6           1             5    6     1      -0.7870959368E-04       5    6    1        -0.4352067131E-02      0.8822871821E-02

    ------------------------------------------------
       NWT REQUIRED            6 OUTER ITERATIONS 
       AND A TOTAL OF         11 INNER ITERATIONS.
    ------------------------------------------------

 NO OUTPUT CONTROL FOR STRESS PERIOD   36   TIME STEP   21
 
 SOLVING FOR HEAD 
                                                   Max.-Head-Change                         Max.-Flux-Residual
  Residual-Control   Outer-Iter.   Inner-Iter.     Column Row Layer    Maximum-Head-Change  Column Row Layer    Maximum-Flux-Residual          L2-NORM 
          0                 1           2             3    7     1       0.4140335567E-01       4    5    1         0.1740838306E+01      0.5601366678E+01
          0                 2           2             5    6     1      -0.8385554487E-02       5    6    1        -0.4577120787E+00      0.9486958680E+00
          0                 3           2             5    6     1      -0.2535306531E-02       5    6    1        -0.1401626546E+00      0.2586662927E+00
          0                 4           2             5    6     1      -0.7661393843E-03       5    6    1        -0.4225878035E-01      0.8069887350E-01
          0                 5           2             5    6     1      -0.2313551189E-03       5    6    1        -0.1277193260E-01      0.2549571390E-01
          0                 6           1             5    6     1      -0.6979805817E-04       5    6    1        -0.3856037743E-02      0.8078246841E-02

    ------------------------------------------------
       NWT REQUIRED            6 OUTER ITERATIONS 
       AND A TOTAL OF         11 INNER ITERATIONS.
    ------------------------------------------------

 NO OUTPUT CONTROL FOR STRESS PERIOD   36   TIME STEP   22
 
 SOLVING FOR HEAD 
                                                   Max.-Head-Change                         Max.-Flux-Residual
  Residual-Control   Outer-Iter.   Inner-Iter.     Column Row Layer    Maximum-Head-Change  Column Row Layer    Maximum-Flux-Residual          L2-NORM 
          0                 1           2             3    7     1       0.4041265499E-01       4    5    1         0.1711698002E+01      0.5394590673E+01
          0                 2           2             5    6     1      -0.7408718415E-02       5    6    1        -0.4031917541E+00      0.8737033519E+00
          0                 3           2             5    6     1      -0.2249428615E-02       5    6    1        -0.1239457811E+00      0.2301763221E+00
          0                 4           2             5    6     1      -0.6839215151E-03       5    6    1        -0.3753618865E-01      0.7069067520E-01
          0                 5           2             5    6     1      -0.2082353790E-03       5    6    1        -0.1142001109E-01      0.2201947318E-01
          0                 6           1             4    7     1      -0.6449089216E-04       5    6    1        -0.3478257055E-02      0.6872212888E-02

    ------------------------------------------------
       NWT REQUIRED            6 OUTER ITERATIONS 
       AND A TOTAL OF         11 INNER ITERATIONS.
    ------------------------------------------------

 NO OUTPUT CONTROL FOR STRESS PERIOD   36   TIME STEP   23
 
 SOLVING FOR HEAD 
                                                   Max.-Head-Change                         Max.-Flux-Residual
  Residual-Control   Outer-Iter.   Inner-Iter.     Column Row Layer    Maximum-Head-Change  Column Row Layer    Maximum-Flux-Residual          L2-NORM 
          0                 1           2             3    7     1       0.3945259579E-01       4    6    1        -0.1962224273E+01      0.5532505734E+01
          0                 2           2             4    6     1      -0.1128812020E-01       4    6    1        -0.6017342660E+00      0.1007480470E+01
          0                 3           2             4    6     1      -0.3545346574E-02       4    6    1        -0.1902120058E+00      0.2869296059E+00
          0                 4           2             4    6     1      -0.1114066173E-02       4    6    1        -0.5966333535E-01      0.9038736770E-01
          0                 5           2             4    6     1      -0.3502447408E-03       4    6    1        -0.1875313276E-01      0.2872039390E-01
          0                 6           2             4    6     1      -0.1101625528E-03       4    6    1        -0.5896330130E-02      0.9128825409E-02
          0                 7           1             4    6     1      -0.3466506921E-04       4    6    1        -0.1854780590E-02      0.2902638007E-02

    ------------------------------------------------
       NWT REQUIRED            7 OUTER ITERATIONS 
       AND A TOTAL OF         13 INNER ITERATIONS.
    ------------------------------------------------

 NO OUTPUT CONTROL FOR STRESS PERIOD   36   TIME STEP   24
 
 SOLVING FOR HEAD 
                                                   Max.-Head-Change                         Max.-Flux-Residual
  Residual-Control   Outer-Iter.   Inner-Iter.     Column Row Layer    Maximum-Head-Change  Column Row Layer    Maximum-Flux-Residual          L2-NORM 
          0                 1           2             3    7     1       0.3850646276E-01       4    6    1        -0.1832840901E+01      0.5339135858E+01
          0                 2           2             4    6     1      -0.1054961032E-01       4    6    1        -0.5620866400E+00      0.9563377245E+00
          0                 3           2             4    6     1      -0.3315037259E-02       4    6    1        -0.1777937300E+00      0.2706544810E+00
          0                 4           2             4    6     1      -0.1042195133E-02       4    6    1        -0.5579398552E-01      0.8526195776E-01
          0                 5           2             4    6     1      -0.3278019527E-03       4    6    1        -0.1754534211E-01      0.2710323674E-01
          0                 6           1             4    6     1      -0.1031501419E-03       4    6    1        -0.5519122582E-02      0.8618186836E-02
          0                 7           1             4    6     1      -0.3247251302E-04       4    6    1        -0.1736896069E-02      0.2741260407E-02

    ------------------------------------------------
       NWT REQUIRED            7 OUTER ITERATIONS 
       AND A TOTAL OF         12 INNER ITERATIONS.
    ------------------------------------------------

 NO OUTPUT CONTROL FOR STRESS PERIOD   36   TIME STEP   25
 
 SOLVING FOR HEAD 
                                                   Max.-Head-Change                         Max.-Flux-Residual
  Residual-Control   Outer-Iter.   Inner-Iter.     Column Row Layer    Maximum-Head-Change  Column Row Layer    Maximum-Flux-Residual          L2-NORM 
          0                 1           2             3    7     1       0.3758115083E-01       4    6    1        -0.1712438912E+01      0.5159725760E+01
          0                 2           2             4    6     1      -0.9861509819E-02       4    6    1        -0.5251653599E+00      0.9086170812E+00
          0                 3           2             4    6     1      -0.3100298375E-02       4    6    1        -0.1662211044E+00      0.2553834405E+00
          0                 4           2             4    6     1      -0.9751372479E-03       4    6    1        -0.5218562051E-01      0.8044505046E-01
          0                 5           2             4    6     1      -0.3068481623E-03       4    6    1        -0.1641825060E-01      0.2558156450E-01
          0                 6           1             4    6     1      -0.9659861348E-04       4    6    1        -0.5166884701E-02      0.8137156930E-02

    ------------------------------------------------
       NWT REQUIRED            6 OUTER ITERATIONS 
       AND A TOTAL OF         11 INNER ITERATIONS.
    ------------------------------------------------

 NO OUTPUT CONTROL FOR STRESS PERIOD   36   TIME STEP   26
 
 SOLVING FOR HEAD 
                                                   Max.-Head-Change                         Max.-Flux-Residual
  Residual-Control   Outer-Iter.   Inner-Iter.     Column Row Layer    Maximum-Head-Change  Column Row Layer    Maximum-Flux-Residual          L2-NORM 
          0                 1           2             3    7     1       0.3667760164E-01       4    6    1        -0.1600354074E+01      0.4993119249E+01
          0                 2           2             4    6     1      -0.9220153716E-02       4    6    1        -0.4907706371E+00      0.8640545941E+00
          0                 3           2             4    6     1      -0.2900009310E-02       4    6    1        -0.1554328015E+00      0.2410391211E+00
          0                 4           2             4    6     1      -0.9125496057E-03       4    6    1        -0.4881950375E-01      0.7591345975E-01
          0                 5           2             4    6     1      -0.2872783537E-03       4    6    1        -0.1536612312E-01      0.2414840099E-01
          0                 6           1             4    6     1      -0.9047588563E-04       4    6    1        -0.4837859780E-02      0.7683633241E-02

    ------------------------------------------------
       NWT REQUIRED            6 OUTER ITERATIONS 
       AND A TOTAL OF         11 INNER ITERATIONS.
    ------------------------------------------------

 NO OUTPUT CONTROL FOR STRESS PERIOD   36   TIME STEP   27
 
 SOLVING FOR HEAD 
                                                   Max.-Head-Change                         Max.-Flux-Residual
  Residual-Control   Outer-Iter.   Inner-Iter.     Column Row Layer    Maximum-Head-Change  Column Row Layer    Maximum-Flux-Residual          L2-NORM 
          0                 1           2             3    7     1       0.3579605304E-01       4    6    1        -0.1495886726E+01      0.4838159877E+01
          0                 2           2             4    6     1      -0.8621655772E-02       4    6    1        -0.4586912337E+00      0.8223798823E+00
          0                 3           2             4    6     1      -0.2712977234E-02       4    6    1        -0.1453637311E+00      0.2275406933E+00
          0                 4           2             4    6     1      -0.8540657808E-03       4    6    1        -0.4567567222E-01      0.7164268256E-01
          0                 5           2             4    6     1      -0.2689798749E-03       4    6    1        -0.1438282551E-01      0.2279629698E-01
          0                 6           1             4    6     1      -0.8474729652E-04       4    6    1        -0.4530161593E-02      0.7255344671E-02

    ------------------------------------------------
       NWT REQUIRED            6 OUTER ITERATIONS 
       AND A TOTAL OF         11 INNER ITERATIONS.
    ------------------------------------------------

 NO OUTPUT CONTROL FOR STRESS PERIOD   36   TIME STEP   28
 
 SOLVING FOR HEAD 
                                                   Max.-Head-Change                         Max.-Flux-Residual
  Residual-Control   Outer-Iter.   Inner-Iter.     Column Row Layer    Maximum-Head-Change  Column Row Layer    Maximum-Flux-Residual          L2-NORM 
          0                 1           2             3    7     1       0.3493707370E-01       4    6    1        -0.1398443568E+01      0.4693893607E+01
          0                 2           2             4    6     1      -0.8062731976E-02       4    6    1        -0.4287482049E+00      0.7833717374E+00
          0                 3           2             4    6     1      -0.2538196835E-02       4    6    1        -0.1359589311E+00      0.2148221296E+00
          0                 4           2             4    6     1      -0.7993777551E-03       4    6    1        -0.4273731196E-01      0.6761273627E-01
          0                 5           2             4    6     1      -0.2518582676E-03       4    6    1        -0.1346320455E-01      0.2151918255E-01
          0                 6           1             4    6     1      -0.7938385528E-04       4    6    1        -0.4242209512E-02      0.6850446313E-02

    ------------------------------------------------
       NWT REQUIRED            6 OUTER ITERATIONS 
       AND A TOTAL OF         11 INNER ITERATIONS.
    ------------------------------------------------

 NO OUTPUT CONTROL FOR STRESS PERIOD   36   TIME STEP   29
 
 SOLVING FOR HEAD 
                                                   Max.-Head-Change                         Max.-Flux-Residual
  Residual-Control   Outer-Iter.   Inner-Iter.     Column Row Layer    Maximum-Head-Change  Column Row Layer    Maximum-Flux-Residual          L2-NORM 
          0                 1           2             3    7     1       0.3410107879E-01       4    6    1        -0.1307455695E+01      0.4559408491E+01
          0                 2           2             4    6     1      -0.7540211868E-02       4    6    1        -0.4007695632E+00      0.7468194230E+00
          0                 3           2             4    6     1      -0.2374692775E-02       4    6    1        -0.1271652667E+00      0.2028200413E+00
          0                 4           2             4    6     1      -0.7481852551E-03       4    6    1        -0.3998809099E-01      0.6380433005E-01
          0                 5           2             4    6     1      -0.2358210194E-03       4    6    1        -0.1260223078E-01      0.2031118066E-01
          0                 6           1             4    6     1      -0.7435703800E-04       4    6    1        -0.3972453721E-02      0.6467140465E-02

    ------------------------------------------------
       NWT REQUIRED            6 OUTER ITERATIONS 
       AND A TOTAL OF         11 INNER ITERATIONS.
    ------------------------------------------------

 NO OUTPUT CONTROL FOR STRESS PERIOD   36   TIME STEP   30



 STREAM LISTING     PERIOD     36   STEP       30

 LAYER ROW COL. STREAM  RCH.  FLOW INTO     FLOW TO   FLOW OUT OF   OVRLND.     DIRECT     STREAM       STREAM     STREAM     STREAM   STREAMBED  STREAMBED
                SEG.NO.  NO.  STRM. RCH.    AQUIFER    STRM. RCH.    RUNOFF     PRECIP       ET          HEAD       DEPTH      WIDTH   CONDCTNC.   GRADIENT

   1    1    1     1     1    1.9499E+01  2.1750E-01   1.9282E+01  0.000E+00  0.000E+00  0.000E+00  1.09414E+03  1.090E+00  1.182E+01  5.318E-02  1.363E+00
   1    2    2     1     2    1.9282E+01  3.3555E-01   1.8946E+01  0.000E+00  0.000E+00  0.000E+00  1.08914E+03  1.086E+00  1.173E+01  8.213E-02  1.362E+00
   1    3    3     1     3    1.8946E+01  2.8492E-01   1.8661E+01  0.000E+00  0.000E+00  0.000E+00  1.08350E+03  1.081E+00  1.164E+01  6.982E-02  1.360E+00
   1    3    4     1     4    1.8661E+01  2.6135E-01   1.8400E+01  0.000E+00  0.000E+00  0.000E+00  1.07848E+03  1.076E+00  1.155E+01  6.412E-02  1.359E+00
   1    4    5     2     1    1.6400E+01  3.0673E-01   1.6093E+01  0.000E+00  0.000E+00  0.000E+00  1.07287E+03  9.324E-01  1.200E+01  7.800E-02  1.311E+00
   1    5    6     2     2    1.6093E+01  2.3538E-01   1.5858E+01  0.000E+00  0.000E+00  0.000E+00  1.06743E+03  9.230E-01  1.200E+01  6.000E-02  1.308E+00
   1    6    6     2     3    1.5858E+01  2.3489E-01   1.5623E+01  0.000E+00  0.000E+00  0.000E+00  1.06271E+03  9.149E-01  1.200E+01  6.000E-02  1.305E+00
   1    7    6     2     4    1.5623E+01  2.3440E-01   1.5389E+01  0.000E+00  0.000E+00  0.000E+00  1.05798E+03  9.067E-01  1.200E+01  6.000E-02  1.302E+00
   1    8    6     2     5    1.5389E+01  2.3390E-01   1.5155E+01  0.000E+00  0.000E+00  0.000E+00  1.05326E+03  8.984E-01  1.200E+01  6.000E-02  1.299E+00
   1    3    5     3     1    2.0000E+00  2.8252E-01   1.7175E+00  0.000E+00  0.000E+00  0.000E+00  1.07555E+03  1.909E+00  9.636E+00  7.227E-02  1.955E+00
   1    3    6     3     2    1.7175E+00  2.4905E-01   1.4684E+00  0.000E+00  0.000E+00  0.000E+00  1.07264E+03  1.727E+00  8.909E+00  6.682E-02  1.864E+00
   1    3    7     3     3    1.4684E+00  1.9718E-01   1.2712E+00  0.000E+00  0.000E+00  0.000E+00  1.06987E+03  1.555E+00  8.218E+00  5.547E-02  1.777E+00
   1    4    8     3     4    1.2712E+00  2.2567E-01   1.0456E+00  0.000E+00  0.000E+00  0.000E+00  1.06682E+03  1.364E+00  7.455E+00  6.709E-02  1.682E+00
   1    5    8     3     5    1.0456E+00  1.5790E-01   8.8768E-01  0.000E+00  0.000E+00  0.000E+00  1.06362E+03  1.164E+00  6.655E+00  4.991E-02  1.582E+00
   1    6    8     3     6    8.8768E-01  5.5980E-02   8.3170E-01  0.000E+00  0.000E+00  0.000E+00  1.06158E+03  1.036E+00  6.145E+00  1.844E-02  1.518E+00
   1    5   10     4     1    1.0000E+01  9.0919E-02   9.9091E+00  0.000E+00  0.000E+00  0.000E+00  1.07836E+03  6.368E-01  1.000E+01  2.500E-02  1.212E+00
   1    5    9     4     2    9.9091E+00  1.8158E-01   9.7275E+00  0.000E+00  0.000E+00  0.000E+00  1.07154E+03  6.315E-01  1.000E+01  5.000E-02  1.211E+00
   1    6    8     4     3    9.7275E+00  1.2689E-01   9.6006E+00  0.000E+00  0.000E+00  0.000E+00  1.06381E+03  6.256E-01  1.000E+01  3.500E-02  1.209E+00
   1    6    8     5     1    1.0432E+01  2.2686E-01   1.0205E+01  0.000E+00  0.000E+00  0.000E+00  1.05868E+03  6.790E-01  1.542E+01  6.166E-02  1.226E+00
   1    7    7     5     2    1.0205E+01  2.7894E-01   9.9265E+00  0.000E+00  0.000E+00  0.000E+00  1.05417E+03  6.732E-01  1.519E+01  7.594E-02  1.224E+00
   1    8    7     5     3    9.9265E+00  1.9221E-01   9.7343E+00  0.000E+00  0.000E+00  0.000E+00  1.04992E+03  6.676E-01  1.497E+01  5.241E-02  1.223E+00
   1    8    6     5     4    9.7343E+00  1.3577E-01   9.5985E+00  0.000E+00  0.000E+00  0.000E+00  1.04691E+03  6.637E-01  1.482E+01  3.706E-02  1.221E+00
   1    9    6     6     1    2.4753E+01  2.5261E-01   2.4501E+01  0.000E+00  0.000E+00  0.000E+00  1.04394E+03  1.210E+00  1.200E+01  6.000E-02  1.403E+00
   1   10    7     6     2    2.4501E+01  2.5216E-01   2.4249E+01  0.000E+00  0.000E+00  0.000E+00  1.03938E+03  1.203E+00  1.200E+01  6.000E-02  1.401E+00
   1   11    7     6     3    2.4249E+01  2.5171E-01   2.3997E+01  0.000E+00  0.000E+00  0.000E+00  1.03483E+03  1.195E+00  1.200E+01  6.000E-02  1.398E+00
   1   12    7     6     4    2.3997E+01  2.5126E-01   2.3746E+01  0.000E+00  0.000E+00  0.000E+00  1.03028E+03  1.188E+00  1.200E+01  6.000E-02  1.396E+00
   1   13    7     6     5    2.3746E+01  8.1808E-03   2.3737E+01  0.000E+00  0.000E+00  0.000E+00  1.02709E+03  1.184E+00  1.200E+01  2.400E-02  1.136E-01
   1   14    9     7     1    1.5000E+02  1.3699E+00   1.4863E+02  0.000E+00  0.000E+00  0.000E+00  1.03987E+03  2.288E+00  5.529E+01  5.593E-01  8.165E-01
   1   13    8     7     2    1.4863E+02  1.9397E+00   1.4669E+02  0.000E+00  0.000E+00  0.000E+00  1.03478E+03  2.279E+00  5.525E+01  6.148E-01  1.052E+00
   1   13    7     7     3    1.4669E+02  1.6398E+00   1.4505E+02  0.000E+00  0.000E+00  0.000E+00  1.02969E+03  2.269E+00  5.521E+01  5.584E-01  9.789E-01
   1   13    6     8     1    1.6879E+02  1.0756E+00   1.6771E+02  0.000E+00  0.000E+00  0.000E+00  1.02482E+03  2.941E+00  4.264E+01  4.345E-01  8.251E-01
   1   13    5     8     2    1.6771E+02  3.1526E-01   1.6740E+02  0.000E+00  0.000E+00  0.000E+00  1.01856E+03  2.936E+00  4.258E+01  4.339E-01  2.422E-01
   1   13    4     8     3    1.6740E+02 -1.9756E+00   1.6937E+02  0.000E+00  0.000E+00  0.000E+00  1.01232E+03  2.942E+00  4.265E+01  4.347E+00 -1.515E-01
   1   13    3     8     4    1.6937E+02 -3.4277E+00   1.7280E+02  0.000E+00  0.000E+00  0.000E+00  1.00608E+03  2.959E+00  4.291E+01  4.373E+00 -2.613E-01
   1   13    2     8     5    1.7280E+02 -2.5308E+00   1.7533E+02  0.000E+00  0.000E+00  0.000E+00  9.99854E+02  2.978E+00  4.319E+01  4.401E+00 -1.917E-01
   1   13    1     8     6    1.7533E+02 -1.9805E+00   1.7731E+02  0.000E+00  0.000E+00  0.000E+00  9.94868E+02  2.993E+00  4.340E+01  2.653E+00 -2.488E-01
   1    8    6     9     1    0.0000E+00  0.0000E+00   0.0000E+00  0.000E+00  0.000E+00  0.000E+00  1.07875E+03  0.000E+00  4.000E+00  0.000E+00  1.000E+00
   1    8    5     9     2    0.0000E+00  0.0000E+00   0.0000E+00  0.000E+00  0.000E+00  0.000E+00  1.07825E+03  0.000E+00  4.000E+00  0.000E+00  1.000E+00





UNSATURATED ZONE PACKAGE VOLUMETRIC BUDGET FOR  TIME STEP    30 STRESS PERIOD   36
  ------------------------------------------------------------------------------



     CUMULATIVE VOLUMES      L**3       RATES FOR THIS TIME STEP      L**3/T
     ------------------                 ------------------------

           IN:                                      IN:
           ---                                      ---
        INFILTRATION =  9757307953.8915          INFILTRATION =           0.8475

          OUT:                                     OUT:
          ----                                     ----
              UZF ET =  1284234934.4742                UZF ET =           0.7500
        UZF RECHARGE =  8032695242.3432          UZF RECHARGE =          10.0821

            IN - OUT =   440377777.0741              IN - OUT =          -9.9846

          STORAGE:                                 STORAGE:
          --------                                 --------
      STORAGE CHANGE =   441690564.1166        STORAGE CHANGE =          -9.9846

 PERCENT DISCREPANCY IS DIFFERENCE BETWEEN IN-OUT MINUS CHANGE IN STORAGE
 DIVIDED BY THE AVERAGE OF IN AND OUT TIMES 100

 PERCENT DISCREPANCY =          -0.00     PERCENT DISCREPANCY =           0.00






1
  VOLUMETRIC BUDGET FOR AGRICULTURAL FIELDS AT  END OF TIME STEP   30, STRESS PERIOD  36
  ------------------------------------------------------------------------------

     CUMULATIVE VOLUMES      L**3       RATES FOR THIS TIME STEP      L**3/T
     ------------------                 ------------------------

           IN:                                      IN:
           ---                                      ---
               AG WELLS  =  8726962176.0000                 AG WELLS  =           0.0000
      DIVERSION SEGMENTS =   952273088.0000        DIVERSION SEGMENTS =           0.0000
       IRRIGATION PONDS  =           0.0000         IRRIGATION PONDS  =           0.0000
           GW IRRIGATION =           0.0000             GW IRRIGATION =           0.0000
           SW IRRIGATION =           0.0000             SW IRRIGATION =           0.0000
        SYSTEM LOSSES GW =           0.0000          SYSTEM LOSSES GW =           0.0000
        SYSTEM LOSSES SW =           0.0000          SYSTEM LOSSES SW =           0.0000

                TOTAL IN =  9679235072.0000                  TOTAL IN =           0.0000

          OUT:                                     OUT:
          ----                                     ----
               AG WELLS  =           0.0000                 AG WELLS  =           0.0000
      DIVERSION SEGMENTS =           0.0000        DIVERSION SEGMENTS =           0.0000
       IRRIGATION PONDS  =           0.0000         IRRIGATION PONDS  =           0.0000
           GW IRRIGATION =  8726962176.0000             GW IRRIGATION =           0.0000
           SW IRRIGATION =   952291008.0000             SW IRRIGATION =           0.0000
        SYSTEM LOSSES GW =           0.0000          SYSTEM LOSSES GW =           0.0000
        SYSTEM LOSSES SW =           0.0000          SYSTEM LOSSES SW =           0.0000

               TOTAL OUT =  9679253504.0000                 TOTAL OUT =           0.0000

                IN - OUT =      -18432.0000                  IN - OUT =           0.0000

     PERCENT DISCREPANCY =          -0.00         PERCENT DISCREPANCY =           0.00



1
  VOLUMETRIC BUDGET FOR ENTIRE MODEL AT END OF TIME STEP   30, STRESS PERIOD  36
  ------------------------------------------------------------------------------

     CUMULATIVE VOLUMES      L**3       RATES FOR THIS TIME STEP      L**3/T
     ------------------                 ------------------------

           IN:                                      IN:
           ---                                      ---
             STORAGE     =  7112726016.0000               STORAGE     =           8.9053
       CONSTANT HEAD     =           0.0000         CONSTANT HEAD     =           0.0000
     HEAD DEP BOUNDS     =    26402738.0000       HEAD DEP BOUNDS     =           0.2881
      STREAM LEAKAGE     =  1135330048.0000        STREAM LEAKAGE     =          12.1023
        UZF RECHARGE     =  8032692736.0000          UZF RECHARGE     =          10.0821
               GW ET     =           0.0000                 GW ET     =           0.0000
     SURFACE LEAKAGE     =           0.0000       SURFACE LEAKAGE     =           0.0000
           AG WELLS      =           0.0000             AG WELLS      =           0.0000

                TOTAL IN = 16307150848.0000                  TOTAL IN =          31.3777

          OUT:                                     OUT:
          ----                                     ----
             STORAGE     =  6606883328.0000               STORAGE     =          21.1785
       CONSTANT HEAD     =           0.0000         CONSTANT HEAD     =           0.0000
     HEAD DEP BOUNDS     =    26764904.0000       HEAD DEP BOUNDS     =           0.2893
      STREAM LEAKAGE     =   945012992.0000        STREAM LEAKAGE     =           9.9146
        UZF RECHARGE     =           0.0000          UZF RECHARGE     =           0.0000
               GW ET     =     1409387.3750                 GW ET     =           0.0000
     SURFACE LEAKAGE     =           0.0000       SURFACE LEAKAGE     =           0.0000
           AG WELLS      =  8726962176.0000             AG WELLS      =           0.0000

               TOTAL OUT = 16307032064.0000                 TOTAL OUT =          31.3825

                IN - OUT =      118784.0000                  IN - OUT =      -4.7035E-03

     PERCENT DISCREPANCY =           0.00         PERCENT DISCREPANCY =          -0.01






         TIME SUMMARY AT END OF TIME STEP   30 IN STRESS PERIOD   36
                    SECONDS     MINUTES      HOURS       DAYS        YEARS
                    -----------------------------------------------------------
   TIME STEP LENGTH  87667.      1461.1      24.352      1.0147     2.77799E-03
 STRESS PERIOD TIME 2.63000E+06  43833.      730.56      30.440     8.33397E-02
         TOTAL TIME 9.21360E+07 1.53560E+06  25593.      1066.4      2.9196    
1
1
                            STRESS PERIOD NO.   37, LENGTH =   2630000.    
                            -----------------------------------------------

                              NUMBER OF TIME STEPS =    30

                               MULTIPLIER FOR DELT =     1.000

                            INITIAL TIME STEP SIZE =   87666.66    

 REUSING NON-PARAMETER GHB CELLS FROM LAST STRESS PERIOD

      2 GHB CELLS

 REUSING STREAM SEGMENT DATA FROM LAST STRESS PERIOD



            AREAL INFILTRATION RATE
 READING ON UNIT   19 WITH FORMAT: (FREE)              

            1           2           3           4           5           6           7           8           9          10
 ........................................................................................................................
   1   1.0000E-10  2.0000E-10   0.000       0.000       0.000       0.000       0.000       0.000       0.000       0.000    
   2   2.0000E-10  1.0000E-10  2.0000E-10   0.000       0.000      8.0000E-10  8.0000E-10  5.0000E-10   0.000       0.000    
   3    0.000      5.0000E-10  1.0000E-10  1.0000E-10  8.0000E-10  8.0000E-10  5.0000E-10  5.0000E-10   0.000       0.000    
   4   8.0000E-10  5.0000E-10  1.0000E-10  1.0000E-10  1.0000E-10  1.0000E-10  1.0000E-10  1.0000E-10  2.0000E-10   0.000    
   5   8.0000E-10  5.0000E-10  1.0000E-10  1.0000E-10  1.0000E-10  1.0000E-10  1.0000E-10  1.0000E-10  1.0000E-10  1.0000E-10
   6   8.0000E-10  5.0000E-10  5.0000E-10  2.0000E-10  2.0000E-10  1.0000E-10  1.0000E-10  1.0000E-10  1.0000E-10  5.0000E-10
   7   8.0000E-10  5.0000E-10  5.0000E-10  2.0000E-10  2.0000E-10  1.0000E-10  1.0000E-10  2.0000E-10  2.0000E-10   0.000    
   8    0.000      5.0000E-10  5.0000E-10  2.0000E-10  2.0000E-10  1.0000E-10  1.0000E-10  2.0000E-10  5.0000E-10   0.000    
   9    0.000      5.0000E-10  5.0000E-10  2.0000E-10  2.0000E-10  1.0000E-10  1.0000E-10  2.0000E-10  5.0000E-10   0.000    
  10    0.000      5.0000E-10  5.0000E-10  2.0000E-10  2.0000E-10  1.0000E-10  1.0000E-10  2.0000E-10  5.0000E-10  8.0000E-10
  11    0.000      1.0000E-10  1.0000E-10  1.0000E-10  1.0000E-10  1.0000E-10  1.0000E-10  2.0000E-10  5.0000E-10   0.000    
  12   1.0000E-10  1.0000E-10  1.0000E-10  1.0000E-10  1.0000E-10  1.0000E-10  1.0000E-10  1.0000E-10  2.0000E-10   0.000    
  13   1.0000E-10  1.0000E-10  2.0000E-10  2.0000E-10  2.0000E-10  2.0000E-10  2.0000E-10  1.0000E-10  1.0000E-10   0.000    
  14    0.000      2.0000E-10  5.0000E-10  5.0000E-10  5.0000E-10  5.0000E-10  5.0000E-10  2.0000E-10  1.0000E-10   0.000    
  15    0.000       0.000      8.0000E-10  8.0000E-10  8.0000E-10  8.0000E-10   0.000       0.000       0.000       0.000    

                  ET RATE =  5.000000E-10

 USING ET EXTINCTION DEPTH FROM PREVIOUS STRESS PERIOD. CURRENT PERIOD IS:      37

 USING EXTINCTION WATER CONTENT FROM PREVIOUS STRESS PERIOD. CURRENT PERIOD IS:      37

 USING AIR ENTRY PRESSURE FROM PREVIOUS STRESS PERIOD. CURRENT PERIOD IS:      37

 USING ROOT PRESSURE HEAD FROM PREVIOUS STRESS PERIOD. CURRENT PERIOD IS:      37

 USING ROOT ACTIVITY FROM PREVIOUS STRESS PERIOD. CURRENT PERIOD IS:      37

 PROCESSING AG STRESS PERIOD DATA

 READING AG STRESS PERIOD DATA

 READING IRRIGATION SEGMENT

 READING IRRIGATION WELL

 READING SUPPLEMENTAL WELL

 NO IRRPOND OR REUSING IRRPOND DATA FROM LAST STRESS PERIOD

 END PROCESSING AG STRESS PERIOD DATA OPTIONS
 
 SOLVING FOR HEAD 
                                                   Max.-Head-Change                         Max.-Flux-Residual
  Residual-Control   Outer-Iter.   Inner-Iter.     Column Row Layer    Maximum-Head-Change  Column Row Layer    Maximum-Flux-Residual          L2-NORM 
          0                 1           2             3    7     1       0.3328785650E-01       4    6    1        -0.1222433929E+01      0.4432703341E+01
          0                 2           2             4    6     1      -0.7051392020E-02       4    6    1        -0.3746079868E+00      0.7124824155E+00
          0                 3           2             4    6     1      -0.2221637938E-02       4    6    1        -0.1189374953E+00      0.1914846810E+00
          0                 4           2             4    6     1      -0.7002350279E-03       4    6    1        -0.3741417785E-01      0.6020288376E-01
          0                 5           2             4    6     1      -0.2207905272E-03       4    6    1        -0.1179566801E-01      0.1916786569E-01
          0                 6           1             4    6     1      -0.6964304710E-04       4    6    1        -0.3719595923E-02      0.6104084116E-02

    ------------------------------------------------
       NWT REQUIRED            6 OUTER ITERATIONS 
       AND A TOTAL OF         11 INNER ITERATIONS.
    ------------------------------------------------

 NO OUTPUT CONTROL FOR STRESS PERIOD   37   TIME STEP    1
 
 SOLVING FOR HEAD 
                                                   Max.-Head-Change                         Max.-Flux-Residual
  Residual-Control   Outer-Iter.   Inner-Iter.     Column Row Layer    Maximum-Head-Change  Column Row Layer    Maximum-Flux-Residual          L2-NORM 
          0                 1           2             3    7     1       0.3249782416E-01       4    6    1        -0.1142919468E+01      0.4312725099E+01
          0                 2           2             4    6     1      -0.6593719350E-02       4    6    1        -0.3501249014E+00      0.6801722165E+00
          0                 3           2             4    6     1      -0.2078247512E-02       4    6    1        -0.1112328369E+00      0.1807668844E+00
          0                 4           2             4    6     1      -0.6552856332E-03       4    6    1        -0.3500243334E-01      0.5679358733E-01
          0                 5           2             4    6     1      -0.2066924565E-03       4    6    1        -0.1103947290E-01      0.1808471266E-01
          0                 6           1             4    6     1      -0.6521897867E-04       4    6    1        -0.3482390991E-02      0.5759888757E-02

    ------------------------------------------------
       NWT REQUIRED            6 OUTER ITERATIONS 
       AND A TOTAL OF         11 INNER ITERATIONS.
    ------------------------------------------------

 NO OUTPUT CONTROL FOR STRESS PERIOD   37   TIME STEP    2
 
 SOLVING FOR HEAD 
                                                   Max.-Head-Change                         Max.-Flux-Residual
  Residual-Control   Outer-Iter.   Inner-Iter.     Column Row Layer    Maximum-Head-Change  Column Row Layer    Maximum-Flux-Residual          L2-NORM 
          0                 1           2             3    7     1       0.3173031806E-01       4    6    1        -0.1068509101E+01      0.4202964408E+01
          0                 2           2             4    6     1      -0.6164935508E-02       4    6    1        -0.3271979798E+00      0.6499982474E+00
          0                 3           2             4    6     1      -0.1943825066E-02       4    6    1        -0.1040134236E+00      0.1706252529E+00
          0                 4           2             4    6     1      -0.6131221281E-03       4    6    1        -0.3274118871E-01      0.5356197933E-01
          0                 5           2             4    6     1      -0.1934604153E-03       4    6    1        -0.1033004305E-01      0.1705726448E-01
          0                 6           1             4    6     1      -0.6106430809E-04       4    6    1        -0.3259725976E-02      0.5433180486E-02

    ------------------------------------------------
       NWT REQUIRED            6 OUTER ITERATIONS 
       AND A TOTAL OF         11 INNER ITERATIONS.
    ------------------------------------------------

 NO OUTPUT CONTROL FOR STRESS PERIOD   37   TIME STEP    3
 
 SOLVING FOR HEAD 
                                                   Max.-Head-Change                         Max.-Flux-Residual
  Residual-Control   Outer-Iter.   Inner-Iter.     Column Row Layer    Maximum-Head-Change  Column Row Layer    Maximum-Flux-Residual          L2-NORM 
          0                 1           2             3    7     1       0.3098582817E-01       4    5    1         0.1021794338E+01      0.4100246006E+01
          0                 2           2             4    6     1      -0.5762903428E-02       4    6    1        -0.3057112066E+00      0.6216737958E+00
          0                 3           2             4    6     1      -0.1817713803E-02       4    6    1        -0.9724344839E-01      0.1610189472E+00
          0                 4           2             4    6     1      -0.5735425009E-03       4    6    1        -0.3061944851E-01      0.5049658015E-01
          0                 5           2             4    6     1      -0.1810322220E-03       4    6    1        -0.9663995579E-02      0.1608200395E-01
          0                 6           1             4    6     1      -0.5715988212E-04       4    6    1        -0.3050559450E-02      0.5122878497E-02

    ------------------------------------------------
       NWT REQUIRED            6 OUTER ITERATIONS 
       AND A TOTAL OF         11 INNER ITERATIONS.
    ------------------------------------------------

 NO OUTPUT CONTROL FOR STRESS PERIOD   37   TIME STEP    4
 
 SOLVING FOR HEAD 
                                                   Max.-Head-Change                         Max.-Flux-Residual
  Residual-Control   Outer-Iter.   Inner-Iter.     Column Row Layer    Maximum-Head-Change  Column Row Layer    Maximum-Flux-Residual          L2-NORM 
          0                 1           2             3    7     1       0.3026353507E-01       4    5    1         0.9786584650E+00      0.4004031566E+01
          0                 2           2             4    6     1      -0.5385664282E-02       4    6    1        -0.2855584255E+00      0.5950792947E+00
          0                 3           2             4    6     1      -0.1699310031E-02       4    6    1        -0.9089007102E-01      0.1519115996E+00
          0                 4           2             4    6     1      -0.5363605540E-03       4    6    1        -0.2862709941E-01      0.4758611980E-01
          0                 5           2             4    6     1      -0.1693504035E-03       4    6    1        -0.9038210363E-02      0.1515545419E-01
          0                 6           1             4    6     1      -0.5348794637E-04       4    6    1        -0.2853928118E-02      0.4827908472E-02

    ------------------------------------------------
       NWT REQUIRED            6 OUTER ITERATIONS 
       AND A TOTAL OF         11 INNER ITERATIONS.
    ------------------------------------------------

 NO OUTPUT CONTROL FOR STRESS PERIOD   37   TIME STEP    5
 
 SOLVING FOR HEAD 
                                                   Max.-Head-Change                         Max.-Flux-Residual
  Residual-Control   Outer-Iter.   Inner-Iter.     Column Row Layer    Maximum-Head-Change  Column Row Layer    Maximum-Flux-Residual          L2-NORM 
          0                 1           2             3    7     1       0.2956305822E-01       4    5    1         0.9385126959E+00      0.3917684095E+01
          0                 2           2             4    6     1      -0.5031365887E-02       4    6    1        -0.2666385252E+00      0.5722076847E+00
          0                 3           2             4    6     1      -0.1588054780E-02       4    6    1        -0.8492231533E-01      0.1441415071E+00
          0                 4           2             4    6     1      -0.5014103332E-03       4    6    1        -0.2675483364E-01      0.4508570556E-01
          0                 5           2             4    6     1      -0.1583667430E-03       4    6    1        -0.8449935874E-02      0.1435302344E-01
          0                 6           1             4    6     1      -0.5003488279E-04       4    6    1        -0.2669037267E-02      0.4569966566E-02

    ------------------------------------------------
       NWT REQUIRED            6 OUTER ITERATIONS 
       AND A TOTAL OF         11 INNER ITERATIONS.
    ------------------------------------------------

 NO OUTPUT CONTROL FOR STRESS PERIOD   37   TIME STEP    6
 
 SOLVING FOR HEAD 
                                                   Max.-Head-Change                         Max.-Flux-Residual
  Residual-Control   Outer-Iter.   Inner-Iter.     Column Row Layer    Maximum-Head-Change  Column Row Layer    Maximum-Flux-Residual          L2-NORM 
          0                 1           2             3    7     1       0.2888488196E-01       4    5    1         0.9011707270E+00      0.3886955873E+01
          0                 2           2             4    6     1      -0.4698517420E-02       4    6    1        -0.2488662740E+00      0.5794952204E+00
          0                 3           2             4    6     1      -0.1483544383E-02       4    6    1        -0.7931563137E-01      0.1472942396E+00
          0                 4           2             4    7     1      -0.4690561520E-03       4    6    1        -0.2499614767E-01      0.4577920054E-01
          0                 5           2             4    7     1      -0.1499756731E-03       4    7    1        -0.7928702982E-02      0.1448829618E-01
          0                 6           1             4    7     1      -0.4795520647E-04       4    7    1        -0.2535152494E-02      0.4591590847E-02

    ------------------------------------------------
       NWT REQUIRED            6 OUTER ITERATIONS 
       AND A TOTAL OF         11 INNER ITERATIONS.
    ------------------------------------------------

 NO OUTPUT CONTROL FOR STRESS PERIOD   37   TIME STEP    7
 
 SOLVING FOR HEAD 
                                                   Max.-Head-Change                         Max.-Flux-Residual
  Residual-Control   Outer-Iter.   Inner-Iter.     Column Row Layer    Maximum-Head-Change  Column Row Layer    Maximum-Flux-Residual          L2-NORM 
          0                 1           2             3    7     1       0.2822732822E-01       4    5    1         0.8664446359E+00      0.3795042413E+01
          0                 2           2             4    7     1      -0.4410731576E-02       4    7    1        -0.2326129090E+00      0.5541735981E+00
          0                 3           2             4    7     1      -0.1409176297E-02       4    7    1        -0.7459350970E-01      0.1387695407E+00
          0                 4           2             4    7     1      -0.4502738933E-03       4    7    1        -0.2381404891E-01      0.4311502495E-01
          0                 5           2             4    7     1      -0.1438886059E-03       4    7    1        -0.7610179562E-02      0.1365613708E-01
          0                 6           1             4    7     1      -0.4598315817E-04       4    7    1        -0.2431930337E-02      0.4330780755E-02

    ------------------------------------------------
       NWT REQUIRED            6 OUTER ITERATIONS 
       AND A TOTAL OF         11 INNER ITERATIONS.
    ------------------------------------------------

 NO OUTPUT CONTROL FOR STRESS PERIOD   37   TIME STEP    8
 
 SOLVING FOR HEAD 
                                                   Max.-Head-Change                         Max.-Flux-Residual
  Residual-Control   Outer-Iter.   Inner-Iter.     Column Row Layer    Maximum-Head-Change  Column Row Layer    Maximum-Flux-Residual          L2-NORM 
          0                 1           2             3    7     1       0.2759080928E-01       4    5    1         0.8341157357E+00      0.3709412307E+01
          0                 2           2             4    7     1      -0.4235140709E-02       4    7    1        -0.2234404822E+00      0.5306055915E+00
          0                 3           2             4    7     1      -0.1352281681E-02       4    7    1        -0.7161478216E-01      0.1307316174E+00
          0                 4           2             4    7     1      -0.4318421471E-03       4    7    1        -0.2284933138E-01      0.4059353190E-01
          0                 5           2             4    7     1      -0.1379191170E-03       4    7    1        -0.7297647274E-02      0.1286664964E-01
          0                 6           1             4    7     1      -0.4405054589E-04       4    7    1        -0.2330718150E-02      0.4082855954E-02

    ------------------------------------------------
       NWT REQUIRED            6 OUTER ITERATIONS 
       AND A TOTAL OF         11 INNER ITERATIONS.
    ------------------------------------------------

 NO OUTPUT CONTROL FOR STRESS PERIOD   37   TIME STEP    9
 
 SOLVING FOR HEAD 
                                                   Max.-Head-Change                         Max.-Flux-Residual
  Residual-Control   Outer-Iter.   Inner-Iter.     Column Row Layer    Maximum-Head-Change  Column Row Layer    Maximum-Flux-Residual          L2-NORM 
          0                 1           2             3    7     1       0.2697423468E-01       6    5    1         0.8217379410E+00      0.3629483143E+01
          0                 2           2             4    7     1      -0.4062804282E-02       4    7    1        -0.2144340414E+00      0.5086490204E+00
          0                 3           2             4    7     1      -0.1296475129E-02       4    7    1        -0.6869165832E-01      0.1231414188E+00
          0                 4           2             4    7     1      -0.4137746478E-03       4    7    1        -0.2190320036E-01      0.3820380732E-01
          0                 5           2             4    7     1      -0.1320715851E-03       4    7    1        -0.6991338960E-02      0.1211677855E-01
          0                 6           1             4    7     1      -0.4215874147E-04       4    7    1        -0.2231589861E-02      0.3846938752E-02

    ------------------------------------------------
       NWT REQUIRED            6 OUTER ITERATIONS 
       AND A TOTAL OF         11 INNER ITERATIONS.
    ------------------------------------------------

 NO OUTPUT CONTROL FOR STRESS PERIOD   37   TIME STEP   10
 
 SOLVING FOR HEAD 
                                                   Max.-Head-Change                         Max.-Flux-Residual
  Residual-Control   Outer-Iter.   Inner-Iter.     Column Row Layer    Maximum-Head-Change  Column Row Layer    Maximum-Flux-Residual          L2-NORM 
          0                 1           2             3    7     1       0.2637702740E-01       6    5    1         0.8106618408E+00      0.3554750489E+01
          0                 2           2             4    7     1      -0.3893673701E-02       4    7    1        -0.2055907872E+00      0.4881692780E+00
          0                 3           2             4    7     1      -0.1241742198E-02       4    7    1        -0.6582334032E-01      0.1159598099E+00
          0                 4           2             4    7     1      -0.3960668117E-03       4    7    1        -0.2097541506E-01      0.3593463253E-01
          0                 5           2             4    7     1      -0.1263444734E-03       4    7    1        -0.6691177043E-02      0.1140331578E-01
          0                 6           1             4    7     1      -0.4030720794E-04       4    7    1        -0.2134519103E-02      0.3622102758E-02

    ------------------------------------------------
       NWT REQUIRED            6 OUTER ITERATIONS 
       AND A TOTAL OF         11 INNER ITERATIONS.
    ------------------------------------------------

 NO OUTPUT CONTROL FOR STRESS PERIOD   37   TIME STEP   11
 
 SOLVING FOR HEAD 
                                                   Max.-Head-Change                         Max.-Flux-Residual
  Residual-Control   Outer-Iter.   Inner-Iter.     Column Row Layer    Maximum-Head-Change  Column Row Layer    Maximum-Flux-Residual          L2-NORM 
          0                 1           2             3    7     1       0.2579910197E-01       6    5    1         0.7997194930E+00      0.3484761082E+01
          0                 2           2             4    7     1      -0.3727801410E-02       4    7    1        -0.1969132555E+00      0.4690633012E+00
          0                 3           2             4    7     1      -0.1188100885E-02       4    7    1        -0.6301073838E-01      0.1091594990E+00
          0                 4           2             4    7     1      -0.3787245411E-03       4    7    1        -0.2006628382E-01      0.3377830884E-01
          0                 5           1             4    7     1      -0.1207396508E-03       4    7    1        -0.6397261633E-02      0.1072409485E-01
          0                 6           1             4    7     1      -0.3849651978E-04       4    7    1        -0.2039537331E-02      0.3407733815E-02

    ------------------------------------------------
       NWT REQUIRED            6 OUTER ITERATIONS 
       AND A TOTAL OF         10 INNER ITERATIONS.
    ------------------------------------------------

 NO OUTPUT CONTROL FOR STRESS PERIOD   37   TIME STEP   12
 
 SOLVING FOR HEAD 
                                                   Max.-Head-Change                         Max.-Flux-Residual
  Residual-Control   Outer-Iter.   Inner-Iter.     Column Row Layer    Maximum-Head-Change  Column Row Layer    Maximum-Flux-Residual          L2-NORM 
          0                 1           2             3    7     1       0.2523939095E-01       6    5    1         0.7889588106E+00      0.3419131927E+01
          0                 2           2             4    7     1      -0.3565410666E-02       4    7    1        -0.1884134554E+00      0.4512388670E+00
          0                 3           2             4    7     1      -0.1135620657E-02       4    7    1        -0.6025760667E-01      0.1027156714E+00
          0                 4           2             4    7     1      -0.3617692542E-03       4    7    1        -0.1917697261E-01      0.3172778623E-01
          0                 5           1             4    7     1      -0.1152636653E-03       4    7    1        -0.6109951411E-02      0.1007712988E-01
          0                 6           1             4    7     1      -0.3672866340E-04       4    7    1        -0.1946753990E-02      0.3203266740E-02

    ------------------------------------------------
       NWT REQUIRED            6 OUTER ITERATIONS 
       AND A TOTAL OF         10 INNER ITERATIONS.
    ------------------------------------------------

 NO OUTPUT CONTROL FOR STRESS PERIOD   37   TIME STEP   13
 
 SOLVING FOR HEAD 
                                                   Max.-Head-Change                         Max.-Flux-Residual
  Residual-Control   Outer-Iter.   Inner-Iter.     Column Row Layer    Maximum-Head-Change  Column Row Layer    Maximum-Flux-Residual          L2-NORM 
          0                 1           2             3    7     1       0.2469663494E-01       4    8    1        -0.7882485406E+00      0.3436491993E+01
          0                 2           2             4    8     1      -0.4314932112E-02       4    8    1        -0.2289926702E+00      0.4846934669E+00
          0                 3           2             4    8     1      -0.1287885580E-02       4    8    1        -0.6880347245E-01      0.1160944327E+00
          0                 4           2             4    8     1      -0.3849461391E-03       4    8    1        -0.2050863660E-01      0.3543264317E-01
          0                 5           2             4    7     1      -0.1161415808E-03       4    8    1        -0.6133348387E-02      0.1106445815E-01
          0                 6           1             4    7     1      -0.3721836707E-04       4    7    1        -0.1964761458E-02      0.3462350583E-02

    ------------------------------------------------
       NWT REQUIRED            6 OUTER ITERATIONS 
       AND A TOTAL OF         11 INNER ITERATIONS.
    ------------------------------------------------

 NO OUTPUT CONTROL FOR STRESS PERIOD   37   TIME STEP   14
 
 SOLVING FOR HEAD 
                                                   Max.-Head-Change                         Max.-Flux-Residual
  Residual-Control   Outer-Iter.   Inner-Iter.     Column Row Layer    Maximum-Head-Change  Column Row Layer    Maximum-Flux-Residual          L2-NORM 
          0                 1           2             3    7     1       0.2416586765E-01       4    8    1        -0.8277800530E+00      0.3418764454E+01
          0                 2           2             4    8     1      -0.4524522403E-02       4    8    1        -0.2405197439E+00      0.4950376569E+00
          0                 3           2             4    8     1      -0.1348411167E-02       4    8    1        -0.7210852456E-01      0.1201945281E+00
          0                 4           2             4    8     1      -0.4024718872E-03       4    8    1        -0.2146484128E-01      0.3641589273E-01
          0                 5           2             4    8     1      -0.1203136716E-03       4    8    1        -0.6410364966E-02      0.1127211866E-01
          0                 6           1             4    7     1      -0.3713855888E-04       4    7    1        -0.1958796689E-02      0.3497934331E-02

    ------------------------------------------------
       NWT REQUIRED            6 OUTER ITERATIONS 
       AND A TOTAL OF         11 INNER ITERATIONS.
    ------------------------------------------------

 NO OUTPUT CONTROL FOR STRESS PERIOD   37   TIME STEP   15
 
 SOLVING FOR HEAD 
                                                   Max.-Head-Change                         Max.-Flux-Residual
  Residual-Control   Outer-Iter.   Inner-Iter.     Column Row Layer    Maximum-Head-Change  Column Row Layer    Maximum-Flux-Residual          L2-NORM 
          0                 1           2             3    7     1       0.2364674030E-01       5    7    1        -0.8650983749E+00      0.3423842629E+01
          0                 2           2             5    7     1      -0.4588090670E-02       5    7    1        -0.2478158336E+00      0.5180268186E+00
          0                 3           2             5    7     1      -0.1342871983E-02       5    7    1        -0.7274072437E-01      0.1289228735E+00
          0                 4           2             5    7     1      -0.3942567383E-03       5    7    1        -0.2128210872E-01      0.3887740834E-01
          0                 5           2             4    7     1      -0.1170174607E-03       5    7    1        -0.6253931023E-02      0.1195718287E-01
          0                 6           1             4    7     1      -0.3767546626E-04       4    7    1        -0.1982361599E-02      0.3690536066E-02

    ------------------------------------------------
       NWT REQUIRED            6 OUTER ITERATIONS 
       AND A TOTAL OF         11 INNER ITERATIONS.
    ------------------------------------------------

 NO OUTPUT CONTROL FOR STRESS PERIOD   37   TIME STEP   16
 
 SOLVING FOR HEAD 
                                                   Max.-Head-Change                         Max.-Flux-Residual
  Residual-Control   Outer-Iter.   Inner-Iter.     Column Row Layer    Maximum-Head-Change  Column Row Layer    Maximum-Flux-Residual          L2-NORM 
          0                 1           2             3    7     1       0.2313163999E-01       5    7    1        -0.7976638486E+00      0.3355720943E+01
          0                 2           2             5    7     1      -0.4241901247E-02       5    7    1        -0.2288557734E+00      0.4966812719E+00
          0                 3           2             5    7     1      -0.1242424331E-02       5    7    1        -0.6727734727E-01      0.1205305224E+00
          0                 4           2             5    7     1      -0.3646951064E-03       5    7    1        -0.1969255205E-01      0.3583168730E-01
          0                 5           1             5    7     1      -0.1072832860E-03       5    7    1        -0.5784380336E-02      0.1086323770E-01
          0                 6           1             4    8     1      -0.3189727038E-04       5    7    1        -0.1702525618E-02      0.3300315493E-02

    ------------------------------------------------
       NWT REQUIRED            6 OUTER ITERATIONS 
       AND A TOTAL OF         10 INNER ITERATIONS.
    ------------------------------------------------

 NO OUTPUT CONTROL FOR STRESS PERIOD   37   TIME STEP   17
 
 SOLVING FOR HEAD 
                                                   Max.-Head-Change                         Max.-Flux-Residual
  Residual-Control   Outer-Iter.   Inner-Iter.     Column Row Layer    Maximum-Head-Change  Column Row Layer    Maximum-Flux-Residual          L2-NORM 
          0                 1           2             3    7     1       0.2253036364E-01       4    7    1        -0.1121323410E+01      0.3426362556E+01
          0                 2           2             4    7     1      -0.6253221380E-02       4    7    1        -0.3326714204E+00      0.5582072061E+00
          0                 3           2             4    7     1      -0.1870470820E-02       4    7    1        -0.9967522714E-01      0.1438282753E+00
          0                 4           2             4    7     1      -0.5598860948E-03       4    7    1        -0.2980588828E-01      0.4298365779E-01
          0                 5           1             4    7     1      -0.1677098462E-03       4    7    1        -0.8923811555E-02      0.1302062755E-01
          0                 6           1             4    7     1      -0.5027306804E-04       4    7    1        -0.2673538268E-02      0.3950471157E-02

    ------------------------------------------------
       NWT REQUIRED            6 OUTER ITERATIONS 
       AND A TOTAL OF         10 INNER ITERATIONS.
    ------------------------------------------------

 NO OUTPUT CONTROL FOR STRESS PERIOD   37   TIME STEP   18
 
 SOLVING FOR HEAD 
                                                   Max.-Head-Change                         Max.-Flux-Residual
  Residual-Control   Outer-Iter.   Inner-Iter.     Column Row Layer    Maximum-Head-Change  Column Row Layer    Maximum-Flux-Residual          L2-NORM 
          0                 1           2             3    7     1       0.2189772939E-01       4    7    1        -0.1071172310E+01      0.3355179322E+01
          0                 2           2             4    7     1      -0.5971616872E-02       4    7    1        -0.3177101395E+00      0.5373010039E+00
          0                 3           2             4    7     1      -0.1786028206E-02       4    7    1        -0.9518419413E-01      0.1371161176E+00
          0                 4           2             4    7     1      -0.5345533862E-03       4    7    1        -0.2845945723E-01      0.4094965714E-01
          0                 5           1             4    7     1      -0.1601062929E-03       4    7    1        -0.8519823458E-02      0.1240559055E-01
          0                 6           1             4    7     1      -0.4798966627E-04       4    7    1        -0.2552267052E-02      0.3764209028E-02

    ------------------------------------------------
       NWT REQUIRED            6 OUTER ITERATIONS 
       AND A TOTAL OF         10 INNER ITERATIONS.
    ------------------------------------------------

 NO OUTPUT CONTROL FOR STRESS PERIOD   37   TIME STEP   19
 
 SOLVING FOR HEAD 
                                                   Max.-Head-Change                         Max.-Flux-Residual
  Residual-Control   Outer-Iter.   Inner-Iter.     Column Row Layer    Maximum-Head-Change  Column Row Layer    Maximum-Flux-Residual          L2-NORM 
          0                 1           2             3    7     1       0.2129104440E-01       4    7    1        -0.1023010771E+01      0.3353491291E+01
          0                 2           2             4    7     1      -0.5705659341E-02       4    7    1        -0.3034328606E+00      0.5517219131E+00
          0                 3           2             4    7     1      -0.1707783135E-02       4    7    1        -0.9095743609E-01      0.1429513595E+00
          0                 4           2             4    7     1      -0.5116752846E-03       4    7    1        -0.2721837703E-01      0.4268672395E-01
          0                 5           1             4    7     1      -0.1534556006E-03       4    7    1        -0.8157491068E-02      0.1291604578E-01
          0                 6           1             4    7     1      -0.4606693837E-04       4    7    1        -0.2447090445E-02      0.3913980574E-02

    ------------------------------------------------
       NWT REQUIRED            6 OUTER ITERATIONS 
       AND A TOTAL OF         10 INNER ITERATIONS.
    ------------------------------------------------

 NO OUTPUT CONTROL FOR STRESS PERIOD   37   TIME STEP   20
 
 SOLVING FOR HEAD 
                                                   Max.-Head-Change                         Max.-Flux-Residual
  Residual-Control   Outer-Iter.   Inner-Iter.     Column Row Layer    Maximum-Head-Change  Column Row Layer    Maximum-Flux-Residual          L2-NORM 
          0                 1           2             3    7     1       0.2070935041E-01       4    7    1        -0.9772718516E+00      0.3288879262E+01
          0                 2           2             4    7     1      -0.5452826025E-02       4    7    1        -0.2899120249E+00      0.5353145279E+00
          0                 3           2             4    7     1      -0.1632611662E-02       4    7    1        -0.8693407026E-01      0.1379062520E+00
          0                 4           2             4    7     1      -0.4893091050E-03       4    7    1        -0.2602231293E-01      0.4116604743E-01
          0                 5           1             4    7     1      -0.1467959174E-03       4    7    1        -0.7801541642E-02      0.1245783960E-01
          0                 6           1             4    7     1      -0.4408248457E-04       4    7    1        -0.2341084351E-02      0.3775847745E-02

    ------------------------------------------------
       NWT REQUIRED            6 OUTER ITERATIONS 
       AND A TOTAL OF         10 INNER ITERATIONS.
    ------------------------------------------------

 NO OUTPUT CONTROL FOR STRESS PERIOD   37   TIME STEP   21
 
 SOLVING FOR HEAD 
                                                   Max.-Head-Change                         Max.-Flux-Residual
  Residual-Control   Outer-Iter.   Inner-Iter.     Column Row Layer    Maximum-Head-Change  Column Row Layer    Maximum-Flux-Residual          L2-NORM 
          0                 1           2             3    7     1       0.2015138222E-01       4    7    1        -0.9338070991E+00      0.3216969238E+01
          0                 2           2             4    7     1      -0.5211979153E-02       4    7    1        -0.2770504981E+00      0.5144299262E+00
          0                 3           2             4    7     1      -0.1560827048E-02       4    7    1        -0.8309961876E-01      0.1312783817E+00
          0                 4           2             4    7     1      -0.4678823503E-03       4    7    1        -0.2487937335E-01      0.3918185812E-01
          0                 5           1             4    7     1      -0.1403913266E-03       4    7    1        -0.7460254058E-02      0.1186453789E-01
          0                 6           1             4    7     1      -0.4216552999E-04       4    7    1        -0.2239035978E-02      0.3598066905E-02

    ------------------------------------------------
       NWT REQUIRED            6 OUTER ITERATIONS 
       AND A TOTAL OF         10 INNER ITERATIONS.
    ------------------------------------------------

 NO OUTPUT CONTROL FOR STRESS PERIOD   37   TIME STEP   22
 
 SOLVING FOR HEAD 
                                                   Max.-Head-Change                         Max.-Flux-Residual
  Residual-Control   Outer-Iter.   Inner-Iter.     Column Row Layer    Maximum-Head-Change  Column Row Layer    Maximum-Flux-Residual          L2-NORM 
          0                 1           2             3    7     1       0.1961546346E-01       4    7    1        -0.8924451352E+00      0.3149455507E+01
          0                 2           2             4    7     1      -0.4982274620E-02       4    7    1        -0.2647955519E+00      0.4947956521E+00
          0                 3           2             4    7     1      -0.1492281341E-02       4    7    1        -0.7944140776E-01      0.1249945262E+00
          0                 4           2             4    7     1      -0.4473991700E-03       4    7    1        -0.2378767957E-01      0.3729515842E-01
          0                 5           1             4    7     1      -0.1342622175E-03       4    7    1        -0.7133904448E-02      0.1129913199E-01
          0                 6           1             4    7     1      -0.4032917194E-04       4    7    1        -0.2141351156E-02      0.3428293317E-02

    ------------------------------------------------
       NWT REQUIRED            6 OUTER ITERATIONS 
       AND A TOTAL OF         10 INNER ITERATIONS.
    ------------------------------------------------

 NO OUTPUT CONTROL FOR STRESS PERIOD   37   TIME STEP   23
 
 SOLVING FOR HEAD 
                                                   Max.-Head-Change                         Max.-Flux-Residual
  Residual-Control   Outer-Iter.   Inner-Iter.     Column Row Layer    Maximum-Head-Change  Column Row Layer    Maximum-Flux-Residual          L2-NORM 
          0                 1           2             3    7     1       0.1910098582E-01       4    7    1        -0.8530047606E+00      0.3085926785E+01
          0                 2           2             4    7     1      -0.4762810312E-02       4    7    1        -0.2530966533E+00      0.4763080738E+00
          0                 3           2             4    7     1      -0.1426722294E-02       4    7    1        -0.7594530964E-01      0.1190265777E+00
          0                 4           2             4    7     1      -0.4277889796E-03       4    7    1        -0.2274328090E-01      0.3549835740E-01
          0                 5           1             4    7     1      -0.1283888231E-03       4    7    1        -0.6821387110E-02      0.1075957807E-01
          0                 6           1             4    7     1      -0.3856787346E-04       4    7    1        -0.2047720285E-02      0.3265977843E-02

    ------------------------------------------------
       NWT REQUIRED            6 OUTER ITERATIONS 
       AND A TOTAL OF         10 INNER ITERATIONS.
    ------------------------------------------------

 NO OUTPUT CONTROL FOR STRESS PERIOD   37   TIME STEP   24
 
 SOLVING FOR HEAD 
                                                   Max.-Head-Change                         Max.-Flux-Residual
  Residual-Control   Outer-Iter.   Inner-Iter.     Column Row Layer    Maximum-Head-Change  Column Row Layer    Maximum-Flux-Residual          L2-NORM 
          0                 1           2             3    7     1       0.1860689334E-01       4    7    1        -0.8153702973E+00      0.3044402052E+01
          0                 2           2             4    7     1      -0.4577107131E-02       4    7    1        -0.2427195697E+00      0.4686920772E+00
          0                 3           2             4    7     1      -0.1374201443E-02       4    7    1        -0.7303486499E-01      0.1166159365E+00
          0                 4           2             4    7     1      -0.4127057540E-03       4    7    1        -0.2191754437E-01      0.3462545532E-01
          0                 5           1             4    7     1      -0.1239808670E-03       4    7    1        -0.6583257745E-02      0.1043790069E-01
          0                 6           1             4    7     1      -0.3725515290E-04       4    7    1        -0.1977809350E-02      0.3147379370E-02

    ------------------------------------------------
       NWT REQUIRED            6 OUTER ITERATIONS 
       AND A TOTAL OF         10 INNER ITERATIONS.
    ------------------------------------------------

 NO OUTPUT CONTROL FOR STRESS PERIOD   37   TIME STEP   25
 
 SOLVING FOR HEAD 
                                                   Max.-Head-Change                         Max.-Flux-Residual
  Residual-Control   Outer-Iter.   Inner-Iter.     Column Row Layer    Maximum-Head-Change  Column Row Layer    Maximum-Flux-Residual          L2-NORM 
          0                 1           2             3    7     1       0.1812952015E-01       4    6    1        -0.8836227539E+00      0.3083240595E+01
          0                 2           2             4    6     1      -0.4855873428E-02       4    6    1        -0.2583175707E+00      0.5059183800E+00
          0                 3           2             4    6     1      -0.1446861249E-02       4    6    1        -0.7737950057E-01      0.1305889459E+00
          0                 4           2             4    6     1      -0.4312999771E-03       4    6    1        -0.2302989371E-01      0.3886784315E-01
          0                 5           2             4    6     1      -0.1286225118E-03       4    6    1        -0.6866704497E-02      0.1170729066E-01
          0                 6           1             4    6     1      -0.3837357920E-04       4    6    1        -0.2047997773E-02      0.3527160582E-02

    ------------------------------------------------
       NWT REQUIRED            6 OUTER ITERATIONS 
       AND A TOTAL OF         11 INNER ITERATIONS.
    ------------------------------------------------

 NO OUTPUT CONTROL FOR STRESS PERIOD   37   TIME STEP   26
 
 SOLVING FOR HEAD 
                                                   Max.-Head-Change                         Max.-Flux-Residual
  Residual-Control   Outer-Iter.   Inner-Iter.     Column Row Layer    Maximum-Head-Change  Column Row Layer    Maximum-Flux-Residual          L2-NORM 
          0                 1           2             3    7     1       0.1766605110E-01       4    6    1        -0.8335369973E+00      0.3020194986E+01
          0                 2           2             4    6     1      -0.4583247994E-02       4    6    1        -0.2437102408E+00      0.4874271051E+00
          0                 3           2             4    6     1      -0.1366241316E-02       4    6    1        -0.7304499220E-01      0.1246733041E+00
          0                 4           2             4    6     1      -0.4074434587E-03       4    6    1        -0.2174902330E-01      0.3708341861E-01
          0                 5           2             4    6     1      -0.1215585026E-03       4    6    1        -0.6487583096E-02      0.1117071518E-01
          0                 6           1             4    6     1      -0.3628059197E-04       4    6    1        -0.1935720741E-02      0.3365776311E-02

    ------------------------------------------------
       NWT REQUIRED            6 OUTER ITERATIONS 
       AND A TOTAL OF         11 INNER ITERATIONS.
    ------------------------------------------------

 NO OUTPUT CONTROL FOR STRESS PERIOD   37   TIME STEP   27
 
 SOLVING FOR HEAD 
                                                   Max.-Head-Change                         Max.-Flux-Residual
  Residual-Control   Outer-Iter.   Inner-Iter.     Column Row Layer    Maximum-Head-Change  Column Row Layer    Maximum-Flux-Residual          L2-NORM 
          0                 1           2             3    7     1       0.1721762131E-01       4    6    1        -0.7865220848E+00      0.2960532164E+01
          0                 2           2             4    6     1      -0.4326966334E-02       4    6    1        -0.2299859363E+00      0.4698761550E+00
          0                 3           2             4    6     1      -0.1290398060E-02       4    6    1        -0.6896958863E-01      0.1190215232E+00
          0                 4           2             4    6     1      -0.3849842028E-03       4    6    1        -0.2054381709E-01      0.3537676059E-01
          0                 5           2             4    7     1      -0.1158676089E-03       4    6    1        -0.6130602037E-02      0.1065728027E-01
          0                 6           1             4    7     1      -0.3501824126E-04       4    7    1        -0.1851201908E-02      0.3211299879E-02

    ------------------------------------------------
       NWT REQUIRED            6 OUTER ITERATIONS 
       AND A TOTAL OF         11 INNER ITERATIONS.
    ------------------------------------------------

 NO OUTPUT CONTROL FOR STRESS PERIOD   37   TIME STEP   28
 
 SOLVING FOR HEAD 
                                                   Max.-Head-Change                         Max.-Flux-Residual
  Residual-Control   Outer-Iter.   Inner-Iter.     Column Row Layer    Maximum-Head-Change  Column Row Layer    Maximum-Flux-Residual          L2-NORM 
          0                 1           2             3    7     1       0.1678393425E-01       4    6    1        -0.7423505492E+00      0.2904023609E+01
          0                 2           2             4    6     1      -0.4085846327E-02       4    6    1        -0.2170802149E+00      0.4532162174E+00
          0                 3           2             4    7     1      -0.1225030268E-02       4    6    1        -0.6513460776E-01      0.1136198681E+00
          0                 4           2             4    7     1      -0.3701534430E-03       4    7    1        -0.1956993814E-01      0.3374390096E-01
          0                 5           1             4    7     1      -0.1118223652E-03       4    7    1        -0.5913263974E-02      0.1016583656E-01
          0                 6           1             4    7     1      -0.3377520638E-04       4    7    1        -0.1786289366E-02      0.3063385793E-02

    ------------------------------------------------
       NWT REQUIRED            6 OUTER ITERATIONS 
       AND A TOTAL OF         10 INNER ITERATIONS.
    ------------------------------------------------

 NO OUTPUT CONTROL FOR STRESS PERIOD   37   TIME STEP   29
 
 SOLVING FOR HEAD 
                                                   Max.-Head-Change                         Max.-Flux-Residual
  Residual-Control   Outer-Iter.   Inner-Iter.     Column Row Layer    Maximum-Head-Change  Column Row Layer    Maximum-Flux-Residual          L2-NORM 
          0                 1           2             3    7     1       0.1636417854E-01       4    6    1        -0.7008162543E+00      0.2850452365E+01
          0                 2           2             4    7     1      -0.3916485143E-02       4    7    1        -0.2066907202E+00      0.4373993223E+00
          0                 3           2             4    7     1      -0.1182855915E-02       4    7    1        -0.6259293164E-01      0.1084547749E+00
          0                 4           2             4    7     1      -0.3571789777E-03       4    7    1        -0.1889300046E-01      0.3218085936E-01
          0                 5           1             4    7     1      -0.1078373119E-03       4    7    1        -0.5705091642E-02      0.9695219636E-02
          0                 6           1             4    7     1      -0.3255297174E-04       4    7    1        -0.1722374672E-02      0.2921685599E-02

    ------------------------------------------------
       NWT REQUIRED            6 OUTER ITERATIONS 
       AND A TOTAL OF         10 INNER ITERATIONS.
    ------------------------------------------------

 NO OUTPUT CONTROL FOR STRESS PERIOD   37   TIME STEP   30



 STREAM LISTING     PERIOD     37   STEP       30

 LAYER ROW COL. STREAM  RCH.  FLOW INTO     FLOW TO   FLOW OUT OF   OVRLND.     DIRECT     STREAM       STREAM     STREAM     STREAM   STREAMBED  STREAMBED
                SEG.NO.  NO.  STRM. RCH.    AQUIFER    STRM. RCH.    RUNOFF     PRECIP       ET          HEAD       DEPTH      WIDTH   CONDCTNC.   GRADIENT

   1    1    1     1     1    1.7249E+01  2.0269E-01   1.7047E+01  0.000E+00  0.000E+00  0.000E+00  1.09410E+03  1.052E+00  1.112E+01  5.002E-02  1.351E+00
   1    2    2     1     2    1.7047E+01  3.1257E-01   1.6734E+01  0.000E+00  0.000E+00  0.000E+00  1.08911E+03  1.047E+00  1.103E+01  7.723E-02  1.349E+00
   1    3    3     1     3    1.6734E+01  2.6529E-01   1.6469E+01  0.000E+00  0.000E+00  0.000E+00  1.08346E+03  1.042E+00  1.094E+01  6.563E-02  1.347E+00
   1    3    4     1     4    1.6469E+01  2.4324E-01   1.6226E+01  0.000E+00  0.000E+00  0.000E+00  1.07845E+03  1.038E+00  1.085E+01  6.024E-02  1.346E+00
   1    4    5     2     1    1.4226E+01  3.0073E-01   1.3925E+01  0.000E+00  0.000E+00  0.000E+00  1.07279E+03  8.555E-01  1.200E+01  7.800E-02  1.285E+00
   1    5    6     2     2    1.3925E+01  2.3075E-01   1.3694E+01  0.000E+00  0.000E+00  0.000E+00  1.06736E+03  8.458E-01  1.200E+01  6.000E-02  1.282E+00
   1    6    6     2     3    1.3694E+01  2.3024E-01   1.3464E+01  0.000E+00  0.000E+00  0.000E+00  1.06263E+03  8.373E-01  1.200E+01  6.000E-02  1.279E+00
   1    7    6     2     4    1.3464E+01  2.2972E-01   1.3234E+01  0.000E+00  0.000E+00  0.000E+00  1.05790E+03  8.287E-01  1.200E+01  6.000E-02  1.276E+00
   1    8    6     2     5    1.3234E+01  2.2921E-01   1.3005E+01  0.000E+00  0.000E+00  0.000E+00  1.05318E+03  8.202E-01  1.200E+01  6.000E-02  1.273E+00
   1    3    5     3     1    2.0000E+00  2.8252E-01   1.7175E+00  0.000E+00  0.000E+00  0.000E+00  1.07555E+03  1.909E+00  9.636E+00  7.227E-02  1.955E+00
   1    3    6     3     2    1.7175E+00  2.4905E-01   1.4684E+00  0.000E+00  0.000E+00  0.000E+00  1.07264E+03  1.727E+00  8.909E+00  6.682E-02  1.864E+00
   1    3    7     3     3    1.4684E+00  1.9718E-01   1.2712E+00  0.000E+00  0.000E+00  0.000E+00  1.06987E+03  1.555E+00  8.218E+00  5.547E-02  1.777E+00
   1    4    8     3     4    1.2712E+00  2.2567E-01   1.0456E+00  0.000E+00  0.000E+00  0.000E+00  1.06682E+03  1.364E+00  7.455E+00  6.709E-02  1.682E+00
   1    5    8     3     5    1.0456E+00  1.5790E-01   8.8768E-01  0.000E+00  0.000E+00  0.000E+00  1.06362E+03  1.164E+00  6.655E+00  4.991E-02  1.582E+00
   1    6    8     3     6    8.8768E-01  5.5980E-02   8.3170E-01  0.000E+00  0.000E+00  0.000E+00  1.06158E+03  1.036E+00  6.145E+00  1.844E-02  1.518E+00
   1    5   10     4     1    1.0000E+01  9.0919E-02   9.9091E+00  0.000E+00  0.000E+00  0.000E+00  1.07836E+03  6.368E-01  1.000E+01  2.500E-02  1.212E+00
   1    5    9     4     2    9.9091E+00  1.8158E-01   9.7275E+00  0.000E+00  0.000E+00  0.000E+00  1.07154E+03  6.315E-01  1.000E+01  5.000E-02  1.211E+00
   1    6    8     4     3    9.7275E+00  1.2689E-01   9.6006E+00  0.000E+00  0.000E+00  0.000E+00  1.06381E+03  6.256E-01  1.000E+01  3.500E-02  1.209E+00
   1    6    8     5     1    1.0432E+01  2.2686E-01   1.0205E+01  0.000E+00  0.000E+00  0.000E+00  1.05868E+03  6.790E-01  1.542E+01  6.166E-02  1.226E+00
   1    7    7     5     2    1.0205E+01  2.7894E-01   9.9265E+00  0.000E+00  0.000E+00  0.000E+00  1.05417E+03  6.732E-01  1.519E+01  7.594E-02  1.224E+00
   1    8    7     5     3    9.9265E+00  1.9221E-01   9.7343E+00  0.000E+00  0.000E+00  0.000E+00  1.04992E+03  6.676E-01  1.497E+01  5.241E-02  1.223E+00
   1    8    6     5     4    9.7343E+00  1.3577E-01   9.5985E+00  0.000E+00  0.000E+00  0.000E+00  1.04691E+03  6.637E-01  1.482E+01  3.706E-02  1.221E+00
   1    9    6     6     1    2.2604E+01  2.4874E-01   2.2355E+01  0.000E+00  0.000E+00  0.000E+00  1.04387E+03  1.146E+00  1.200E+01  6.000E-02  1.382E+00
   1   10    7     6     2    2.2355E+01  2.4828E-01   2.2107E+01  0.000E+00  0.000E+00  0.000E+00  1.03932E+03  1.138E+00  1.200E+01  6.000E-02  1.379E+00
   1   11    7     6     3    2.2107E+01  2.4782E-01   2.1859E+01  0.000E+00  0.000E+00  0.000E+00  1.03477E+03  1.130E+00  1.200E+01  6.000E-02  1.377E+00
   1   12    7     6     4    2.1859E+01  2.4736E-01   2.1611E+01  0.000E+00  0.000E+00  0.000E+00  1.03021E+03  1.123E+00  1.200E+01  6.000E-02  1.374E+00
   1   13    7     6     5    2.1611E+01  6.9311E-03   2.1604E+01  0.000E+00  0.000E+00  0.000E+00  1.02703E+03  1.119E+00  1.200E+01  2.400E-02  9.627E-02
   1   14    9     7     1    1.5000E+02  1.3708E+00   1.4863E+02  0.000E+00  0.000E+00  0.000E+00  1.03987E+03  2.288E+00  5.529E+01  5.593E-01  8.170E-01
   1   13    8     7     2    1.4863E+02  1.9429E+00   1.4669E+02  0.000E+00  0.000E+00  0.000E+00  1.03478E+03  2.279E+00  5.525E+01  6.147E-01  1.053E+00
   1   13    7     7     3    1.4669E+02  1.6470E+00   1.4504E+02  0.000E+00  0.000E+00  0.000E+00  1.02969E+03  2.269E+00  5.521E+01  5.584E-01  9.832E-01
   1   13    6     8     1    1.6664E+02  1.0714E+00   1.6557E+02  0.000E+00  0.000E+00  0.000E+00  1.02480E+03  2.927E+00  4.244E+01  4.324E-01  8.258E-01
   1   13    5     8     2    1.6557E+02  3.1181E-01   1.6526E+02  0.000E+00  0.000E+00  0.000E+00  1.01855E+03  2.922E+00  4.237E+01  4.318E-01  2.407E-01
   1   13    4     8     3    1.6526E+02 -1.9860E+00   1.6725E+02  0.000E+00  0.000E+00  0.000E+00  1.01230E+03  2.928E+00  4.245E+01  4.326E+00 -1.530E-01
   1   13    3     8     4    1.6725E+02 -3.4217E+00   1.7067E+02  0.000E+00  0.000E+00  0.000E+00  1.00607E+03  2.945E+00  4.271E+01  4.352E+00 -2.621E-01
   1   13    2     8     5    1.7067E+02 -2.5233E+00   1.7319E+02  0.000E+00  0.000E+00  0.000E+00  9.99840E+02  2.965E+00  4.299E+01  4.381E+00 -1.920E-01
   1   13    1     8     6    1.7319E+02 -1.9742E+00   1.7517E+02  0.000E+00  0.000E+00  0.000E+00  9.94854E+02  2.979E+00  4.320E+01  2.641E+00 -2.491E-01
   1    8    6     9     1    0.0000E+00  0.0000E+00   0.0000E+00  0.000E+00  0.000E+00  0.000E+00  1.07875E+03  0.000E+00  4.000E+00  0.000E+00  1.000E+00
   1    8    5     9     2    0.0000E+00  0.0000E+00   0.0000E+00  0.000E+00  0.000E+00  0.000E+00  1.07825E+03  0.000E+00  4.000E+00  0.000E+00  1.000E+00





UNSATURATED ZONE PACKAGE VOLUMETRIC BUDGET FOR  TIME STEP    30 STRESS PERIOD   37
  ------------------------------------------------------------------------------



     CUMULATIVE VOLUMES      L**3       RATES FOR THIS TIME STEP      L**3/T
     ------------------                 ------------------------

           IN:                                      IN:
           ---                                      ---
        INFILTRATION =  9759536878.7642          INFILTRATION =           0.8475

          OUT:                                     OUT:
          ----                                     ----
              UZF ET =  1286207434.3276                UZF ET =           0.7500
        UZF RECHARGE =  8057144918.1791          UZF RECHARGE =           7.7810

            IN - OUT =   416184526.2575              IN - OUT =          -7.6835

          STORAGE:                                 STORAGE:
          --------                                 --------
      STORAGE CHANGE =   417497313.3132        STORAGE CHANGE =          -7.6835

 PERCENT DISCREPANCY IS DIFFERENCE BETWEEN IN-OUT MINUS CHANGE IN STORAGE
 DIVIDED BY THE AVERAGE OF IN AND OUT TIMES 100

 PERCENT DISCREPANCY =          -0.00     PERCENT DISCREPANCY =           0.00






1
  VOLUMETRIC BUDGET FOR AGRICULTURAL FIELDS AT  END OF TIME STEP   30, STRESS PERIOD  37
  ------------------------------------------------------------------------------

     CUMULATIVE VOLUMES      L**3       RATES FOR THIS TIME STEP      L**3/T
     ------------------                 ------------------------

           IN:                                      IN:
           ---                                      ---
               AG WELLS  =  8726962176.0000                 AG WELLS  =           0.0000
      DIVERSION SEGMENTS =   952273088.0000        DIVERSION SEGMENTS =           0.0000
       IRRIGATION PONDS  =           0.0000         IRRIGATION PONDS  =           0.0000
           GW IRRIGATION =           0.0000             GW IRRIGATION =           0.0000
           SW IRRIGATION =           0.0000             SW IRRIGATION =           0.0000
        SYSTEM LOSSES GW =           0.0000          SYSTEM LOSSES GW =           0.0000
        SYSTEM LOSSES SW =           0.0000          SYSTEM LOSSES SW =           0.0000

                TOTAL IN =  9679235072.0000                  TOTAL IN =           0.0000

          OUT:                                     OUT:
          ----                                     ----
               AG WELLS  =           0.0000                 AG WELLS  =           0.0000
      DIVERSION SEGMENTS =           0.0000        DIVERSION SEGMENTS =           0.0000
       IRRIGATION PONDS  =           0.0000         IRRIGATION PONDS  =           0.0000
           GW IRRIGATION =  8726962176.0000             GW IRRIGATION =           0.0000
           SW IRRIGATION =   952291008.0000             SW IRRIGATION =           0.0000
        SYSTEM LOSSES GW =           0.0000          SYSTEM LOSSES GW =           0.0000
        SYSTEM LOSSES SW =           0.0000          SYSTEM LOSSES SW =           0.0000

               TOTAL OUT =  9679253504.0000                 TOTAL OUT =           0.0000

                IN - OUT =      -18432.0000                  IN - OUT =           0.0000

     PERCENT DISCREPANCY =          -0.00         PERCENT DISCREPANCY =           0.00



1
  VOLUMETRIC BUDGET FOR ENTIRE MODEL AT END OF TIME STEP   30, STRESS PERIOD  37
  ------------------------------------------------------------------------------

     CUMULATIVE VOLUMES      L**3       RATES FOR THIS TIME STEP      L**3/T
     ------------------                 ------------------------

           IN:                                      IN:
           ---                                      ---
             STORAGE     =  7129913856.0000               STORAGE     =           5.4732
       CONSTANT HEAD     =           0.0000         CONSTANT HEAD     =           0.0000
     HEAD DEP BOUNDS     =    27160476.0000       HEAD DEP BOUNDS     =           0.2881
      STREAM LEAKAGE     =  1166844032.0000        STREAM LEAKAGE     =          11.9889
        UZF RECHARGE     =  8057143808.0000          UZF RECHARGE     =           7.7810
               GW ET     =           0.0000                 GW ET     =           0.0000
     SURFACE LEAKAGE     =           0.0000       SURFACE LEAKAGE     =           0.0000
           AG WELLS      =           0.0000             AG WELLS      =           0.0000

                TOTAL IN = 16381062144.0000                  TOTAL IN =          25.5313

          OUT:                                     OUT:
          ----                                     ----
             STORAGE     =  6653854208.0000               STORAGE     =          15.3392
       CONSTANT HEAD     =           0.0000         CONSTANT HEAD     =           0.0000
     HEAD DEP BOUNDS     =    27525108.0000       HEAD DEP BOUNDS     =           0.2889
      STREAM LEAKAGE     =   971198912.0000        STREAM LEAKAGE     =           9.9052
        UZF RECHARGE     =           0.0000          UZF RECHARGE     =           0.0000
               GW ET     =     1409387.3750                 GW ET     =           0.0000
     SURFACE LEAKAGE     =           0.0000       SURFACE LEAKAGE     =           0.0000
           AG WELLS      =  8726962176.0000             AG WELLS      =           0.0000

               TOTAL OUT = 16380950528.0000                 TOTAL OUT =          25.5333

                IN - OUT =      111616.0000                  IN - OUT =      -2.0065E-03

     PERCENT DISCREPANCY =           0.00         PERCENT DISCREPANCY =          -0.01






         TIME SUMMARY AT END OF TIME STEP   30 IN STRESS PERIOD   37
                    SECONDS     MINUTES      HOURS       DAYS        YEARS
                    -----------------------------------------------------------
   TIME STEP LENGTH  87667.      1461.1      24.352      1.0147     2.77799E-03
 STRESS PERIOD TIME 2.63000E+06  43833.      730.56      30.440     8.33397E-02
         TOTAL TIME 9.47660E+07 1.57943E+06  26324.      1096.8      3.0030    
1
1
                            STRESS PERIOD NO.   38, LENGTH =   2630000.    
                            -----------------------------------------------

                              NUMBER OF TIME STEPS =    30

                               MULTIPLIER FOR DELT =     1.000

                            INITIAL TIME STEP SIZE =   87666.66    

 REUSING NON-PARAMETER GHB CELLS FROM LAST STRESS PERIOD

      2 GHB CELLS

 REUSING STREAM SEGMENT DATA FROM LAST STRESS PERIOD



            AREAL INFILTRATION RATE
 READING ON UNIT   19 WITH FORMAT: (FREE)              

            1           2           3           4           5           6           7           8           9          10
 ........................................................................................................................
   1   1.0000E-10  2.0000E-10   0.000       0.000       0.000       0.000       0.000       0.000       0.000       0.000    
   2   2.0000E-10  1.0000E-10  2.0000E-10   0.000       0.000      8.0000E-10  8.0000E-10  5.0000E-10   0.000       0.000    
   3    0.000      5.0000E-10  1.0000E-10  1.0000E-10  8.0000E-10  8.0000E-10  5.0000E-10  5.0000E-10   0.000       0.000    
   4   8.0000E-10  5.0000E-10  1.0000E-10  1.0000E-10  1.0000E-10  1.0000E-10  1.0000E-10  1.0000E-10  2.0000E-10   0.000    
   5   8.0000E-10  5.0000E-10  1.0000E-10  1.0000E-10  1.0000E-10  1.0000E-10  1.0000E-10  1.0000E-10  1.0000E-10  1.0000E-10
   6   8.0000E-10  5.0000E-10  5.0000E-10  2.0000E-10  2.0000E-10  1.0000E-10  1.0000E-10  1.0000E-10  1.0000E-10  5.0000E-10
   7   8.0000E-10  5.0000E-10  5.0000E-10  2.0000E-10  2.0000E-10  1.0000E-10  1.0000E-10  2.0000E-10  2.0000E-10   0.000    
   8    0.000      5.0000E-10  5.0000E-10  2.0000E-10  2.0000E-10  1.0000E-10  1.0000E-10  2.0000E-10  5.0000E-10   0.000    
   9    0.000      5.0000E-10  5.0000E-10  2.0000E-10  2.0000E-10  1.0000E-10  1.0000E-10  2.0000E-10  5.0000E-10   0.000    
  10    0.000      5.0000E-10  5.0000E-10  2.0000E-10  2.0000E-10  1.0000E-10  1.0000E-10  2.0000E-10  5.0000E-10  8.0000E-10
  11    0.000      1.0000E-10  1.0000E-10  1.0000E-10  1.0000E-10  1.0000E-10  1.0000E-10  2.0000E-10  5.0000E-10   0.000    
  12   1.0000E-10  1.0000E-10  1.0000E-10  1.0000E-10  1.0000E-10  1.0000E-10  1.0000E-10  1.0000E-10  2.0000E-10   0.000    
  13   1.0000E-10  1.0000E-10  2.0000E-10  2.0000E-10  2.0000E-10  2.0000E-10  2.0000E-10  1.0000E-10  1.0000E-10   0.000    
  14    0.000      2.0000E-10  5.0000E-10  5.0000E-10  5.0000E-10  5.0000E-10  5.0000E-10  2.0000E-10  1.0000E-10   0.000    
  15    0.000       0.000      8.0000E-10  8.0000E-10  8.0000E-10  8.0000E-10   0.000       0.000       0.000       0.000    

                  ET RATE =  5.000000E-10

 USING ET EXTINCTION DEPTH FROM PREVIOUS STRESS PERIOD. CURRENT PERIOD IS:      38

 USING EXTINCTION WATER CONTENT FROM PREVIOUS STRESS PERIOD. CURRENT PERIOD IS:      38

 USING AIR ENTRY PRESSURE FROM PREVIOUS STRESS PERIOD. CURRENT PERIOD IS:      38

 USING ROOT PRESSURE HEAD FROM PREVIOUS STRESS PERIOD. CURRENT PERIOD IS:      38

 USING ROOT ACTIVITY FROM PREVIOUS STRESS PERIOD. CURRENT PERIOD IS:      38

 PROCESSING AG STRESS PERIOD DATA

 READING AG STRESS PERIOD DATA

 READING IRRIGATION SEGMENT

 READING IRRIGATION WELL

 READING SUPPLEMENTAL WELL

 NO IRRPOND OR REUSING IRRPOND DATA FROM LAST STRESS PERIOD

 END PROCESSING AG STRESS PERIOD DATA OPTIONS
 
 SOLVING FOR HEAD 
                                                   Max.-Head-Change                         Max.-Flux-Residual
  Residual-Control   Outer-Iter.   Inner-Iter.     Column Row Layer    Maximum-Head-Change  Column Row Layer    Maximum-Flux-Residual          L2-NORM 
          0                 1           2             3    7     1       0.1595900587E-01       4    7    1        -0.6667629923E+00      0.2799628054E+01
          0                 2           2             4    7     1      -0.3780940979E-02       4    7    1        -0.1996352252E+00      0.4223745215E+00
          0                 3           2             4    7     1      -0.1141179528E-02       4    7    1        -0.6041677284E-01      0.1035107706E+00
          0                 4           2             4    7     1      -0.3443844835E-03       4    7    1        -0.1822442633E-01      0.3068307479E-01
          0                 5           1             4    7     1      -0.1039149325E-03       4    7    1        -0.5499909508E-02      0.9244088448E-02
          0                 6           1             4    7     1      -0.3135200729E-04       4    7    1        -0.1659493590E-02      0.2785811836E-02

    ------------------------------------------------
       NWT REQUIRED            6 OUTER ITERATIONS 
       AND A TOTAL OF         10 INNER ITERATIONS.
    ------------------------------------------------

 NO OUTPUT CONTROL FOR STRESS PERIOD   38   TIME STEP    1
 
 SOLVING FOR HEAD 
                                                   Max.-Head-Change                         Max.-Flux-Residual
  Residual-Control   Outer-Iter.   Inner-Iter.     Column Row Layer    Maximum-Head-Change  Column Row Layer    Maximum-Flux-Residual          L2-NORM 
          0                 1           2             3    7     1       0.1556706521E-01       4    7    1        -0.6439471884E+00      0.2748215453E+01
          0                 2           2             4    7     1      -0.3647116987E-02       4    7    1        -0.1926571911E+00      0.4079515036E+00
          0                 3           2             4    7     1      -0.1100117635E-02       4    7    1        -0.5826943280E-01      0.9877785143E-01
          0                 4           2             4    7     1      -0.3318023018E-03       4    7    1        -0.1756603746E-01      0.2924874244E-01
          0                 5           1             4    7     1      -0.1000641974E-03       4    7    1        -0.5298223025E-02      0.8811935245E-02
          0                 6           1             4    7     1      -0.3017479864E-04       4    7    1        -0.1597786256E-02      0.2655618271E-02

    ------------------------------------------------
       NWT REQUIRED            6 OUTER ITERATIONS 
       AND A TOTAL OF         10 INNER ITERATIONS.
    ------------------------------------------------

 NO OUTPUT CONTROL FOR STRESS PERIOD   38   TIME STEP    2
 
 SOLVING FOR HEAD 
                                                   Max.-Head-Change                         Max.-Flux-Residual
  Residual-Control   Outer-Iter.   Inner-Iter.     Column Row Layer    Maximum-Head-Change  Column Row Layer    Maximum-Flux-Residual          L2-NORM 
          0                 1           2             3    7     1       0.1518849350E-01       7    8    1         0.6225508730E+00      0.2699844333E+01
          0                 2           2             4    7     1      -0.3515200970E-02       4    7    1        -0.1857680568E+00      0.3941811088E+00
          0                 3           2             4    7     1      -0.1059716104E-02       4    7    1        -0.5615376085E-01      0.9424458515E-01
          0                 4           2             4    7     1      -0.3194432417E-03       4    7    1        -0.1691852421E-01      0.2787386258E-01
          0                 5           1             4    7     1      -0.9628751736E-04       4    7    1        -0.5100192998E-02      0.8397579195E-02

    ------------------------------------------------
       NWT REQUIRED            5 OUTER ITERATIONS 
       AND A TOTAL OF          9 INNER ITERATIONS.
    ------------------------------------------------

 NO OUTPUT CONTROL FOR STRESS PERIOD   38   TIME STEP    3
 
 SOLVING FOR HEAD 
                                                   Max.-Head-Change                         Max.-Flux-Residual
  Residual-Control   Outer-Iter.   Inner-Iter.     Column Row Layer    Maximum-Head-Change  Column Row Layer    Maximum-Flux-Residual          L2-NORM 
          0                 1           2             3    7     1       0.1482369763E-01       7    8    1         0.6168649136E+00      0.2655763751E+01
          0                 2           2             4    7     1      -0.3385773560E-02       4    7    1        -0.1790003055E+00      0.3812931895E+00
          0                 3           2             4    7     1      -0.1020137331E-02       4    7    1        -0.5407885407E-01      0.8991054133E-01
          0                 4           2             4    7     1      -0.3073526632E-03       4    7    1        -0.1628442982E-01      0.2655654351E-01
          0                 5           1             4    7     1      -0.9259754335E-04       4    7    1        -0.4906529564E-02      0.8000446743E-02

    ------------------------------------------------
       NWT REQUIRED            5 OUTER ITERATIONS 
       AND A TOTAL OF          9 INNER ITERATIONS.
    ------------------------------------------------

 NO OUTPUT CONTROL FOR STRESS PERIOD   38   TIME STEP    4
 
 SOLVING FOR HEAD 
                                                   Max.-Head-Change                         Max.-Flux-Residual
  Residual-Control   Outer-Iter.   Inner-Iter.     Column Row Layer    Maximum-Head-Change  Column Row Layer    Maximum-Flux-Residual          L2-NORM 
          0                 1           2             3    7     1       0.1447146868E-01       7    8    1         0.6112095131E+00      0.2613837755E+01
          0                 2           2             4    7     1      -0.3258628345E-02       4    7    1        -0.1723439906E+00      0.3690492288E+00
          0                 3           2             4    7     1      -0.9813122599E-03       4    7    1        -0.5204131932E-01      0.8575431450E-01
          0                 4           2             4    7     1      -0.2955078407E-03       4    7    1        -0.1566262524E-01      0.2529162217E-01
          0                 5           1             4    7     1      -0.8898689180E-04       4    7    1        -0.4716862456E-02      0.7619007118E-02

    ------------------------------------------------
       NWT REQUIRED            5 OUTER ITERATIONS 
       AND A TOTAL OF          9 INNER ITERATIONS.
    ------------------------------------------------

 NO OUTPUT CONTROL FOR STRESS PERIOD   38   TIME STEP    5
 
 SOLVING FOR HEAD 
                                                   Max.-Head-Change                         Max.-Flux-Residual
  Residual-Control   Outer-Iter.   Inner-Iter.     Column Row Layer    Maximum-Head-Change  Column Row Layer    Maximum-Flux-Residual          L2-NORM 
          0                 1           2             3    5     1       0.1427814241E-01       7    8    1         0.6055938995E+00      0.2573940937E+01
          0                 2           2             4    7     1      -0.3134074714E-02       4    7    1        -0.1658166453E+00      0.3574255422E+00
          0                 3           2             4    7     1      -0.9433259724E-03       4    7    1        -0.5004598196E-01      0.8176999328E-01
          0                 4           2             4    7     1      -0.2839321183E-03       4    7    1        -0.1505443689E-01      0.2407734429E-01
          0                 5           1             4    7     1      -0.8546195031E-04       4    7    1        -0.4531555368E-02      0.7252745966E-02

    ------------------------------------------------
       NWT REQUIRED            5 OUTER ITERATIONS 
       AND A TOTAL OF          9 INNER ITERATIONS.
    ------------------------------------------------

 NO OUTPUT CONTROL FOR STRESS PERIOD   38   TIME STEP    6
 
 SOLVING FOR HEAD 
                                                   Max.-Head-Change                         Max.-Flux-Residual
  Residual-Control   Outer-Iter.   Inner-Iter.     Column Row Layer    Maximum-Head-Change  Column Row Layer    Maximum-Flux-Residual          L2-NORM 
          0                 1           2             3    5     1       0.1409124111E-01       7    8    1         0.6000155504E+00      0.2535942657E+01
          0                 2           2             4    7     1      -0.3012053028E-02       4    7    1        -0.1594159018E+00      0.3463886310E+00
          0                 3           2             4    7     1      -0.9061547978E-03       4    7    1        -0.4809181058E-01      0.7794748589E-01
          0                 4           2             4    7     1      -0.2726167676E-03       4    7    1        -0.1445946465E-01      0.2291064549E-01
          0                 5           1             4    7     1      -0.8201964201E-04       4    7    1        -0.4350462710E-02      0.6900747525E-02

    ------------------------------------------------
       NWT REQUIRED            5 OUTER ITERATIONS 
       AND A TOTAL OF          9 INNER ITERATIONS.
    ------------------------------------------------

 NO OUTPUT CONTROL FOR STRESS PERIOD   38   TIME STEP    7
 
 SOLVING FOR HEAD 
                                                   Max.-Head-Change                         Max.-Flux-Residual
  Residual-Control   Outer-Iter.   Inner-Iter.     Column Row Layer    Maximum-Head-Change  Column Row Layer    Maximum-Flux-Residual          L2-NORM 
          0                 1           2             3    5     1       0.1390646158E-01       7    8    1         0.5944831806E+00      0.2499736300E+01
          0                 2           2             4    7     1      -0.2892809519E-02       4    7    1        -0.1531558349E+00      0.3359144746E+00
          0                 3           2             4    7     1      -0.8698655520E-03       4    7    1        -0.4618263361E-01      0.7428020629E-01
          0                 4           2             4    7     1      -0.2615798262E-03       4    7    1        -0.1387874630E-01      0.2178952280E-01
          0                 5           1             4    7     1      -0.7866480704E-04       4    7    1        -0.4173864266E-02      0.6562416672E-02

    ------------------------------------------------
       NWT REQUIRED            5 OUTER ITERATIONS 
       AND A TOTAL OF          9 INNER ITERATIONS.
    ------------------------------------------------

 NO OUTPUT CONTROL FOR STRESS PERIOD   38   TIME STEP    8
 
 SOLVING FOR HEAD 
                                                   Max.-Head-Change                         Max.-Flux-Residual
  Residual-Control   Outer-Iter.   Inner-Iter.     Column Row Layer    Maximum-Head-Change  Column Row Layer    Maximum-Flux-Residual          L2-NORM 
          0                 1           2             3    5     1       0.1372392379E-01       7    8    1         0.5889938880E+00      0.2465226063E+01
          0                 2           2             4    7     1      -0.2776400505E-02       4    7    1        -0.1470400695E+00      0.3259820299E+00
          0                 3           2             4    7     1      -0.8344707796E-03       4    7    1        -0.4431928674E-01      0.7076270717E-01
          0                 4           2             4    7     1      -0.2508238388E-03       4    7    1        -0.1331246494E-01      0.2071231662E-01
          0                 5           1             4    7     1      -0.7539786685E-04       4    7    1        -0.4001795812E-02      0.6237261796E-02

    ------------------------------------------------
       NWT REQUIRED            5 OUTER ITERATIONS 
       AND A TOTAL OF          9 INNER ITERATIONS.
    ------------------------------------------------

 NO OUTPUT CONTROL FOR STRESS PERIOD   38   TIME STEP    9
 
 SOLVING FOR HEAD 
                                                   Max.-Head-Change                         Max.-Flux-Residual
  Residual-Control   Outer-Iter.   Inner-Iter.     Column Row Layer    Maximum-Head-Change  Column Row Layer    Maximum-Flux-Residual          L2-NORM 
          0                 1           2             3    5     1       0.1354323870E-01       7    8    1         0.5835500404E+00      0.2432287577E+01
          0                 2           2             4    7     1      -0.2662781161E-02       4    7    1        -0.1410667708E+00      0.3165633396E+00
          0                 3           2             4    7     1      -0.7999531346E-03       4    7    1        -0.4250100061E-01      0.6738733754E-01
          0                 4           2             4    7     1      -0.2403424878E-03       4    7    1        -0.1276032857E-01      0.1967666933E-01
          0                 5           1             4    7     1      -0.7221660820E-04       4    7    1        -0.3834152222E-02      0.5924574344E-02

    ------------------------------------------------
       NWT REQUIRED            5 OUTER ITERATIONS 
       AND A TOTAL OF          9 INNER ITERATIONS.
    ------------------------------------------------

 NO OUTPUT CONTROL FOR STRESS PERIOD   38   TIME STEP   10
 
 SOLVING FOR HEAD 
                                                   Max.-Head-Change                         Max.-Flux-Residual
  Residual-Control   Outer-Iter.   Inner-Iter.     Column Row Layer    Maximum-Head-Change  Column Row Layer    Maximum-Flux-Residual          L2-NORM 
          0                 1           2             3    5     1       0.1336500242E-01       5    8    1        -0.5930092803E+00      0.2472363610E+01
          0                 2           2             5    8     1      -0.2682663051E-02       5    8    1        -0.1445540131E+00      0.3408719971E+00
          0                 3           2             4    7     1      -0.7687588953E-03       4    7    1        -0.4080472577E-01      0.7473929720E-01
          0                 4           2             4    7     1      -0.2313256616E-03       4    7    1        -0.1226665630E-01      0.2122211443E-01
          0                 5           1             4    7     1      -0.6963138692E-04       4    7    1        -0.3691801521E-02      0.6237088779E-02

    ------------------------------------------------
       NWT REQUIRED            5 OUTER ITERATIONS 
       AND A TOTAL OF          9 INNER ITERATIONS.
    ------------------------------------------------

 NO OUTPUT CONTROL FOR STRESS PERIOD   38   TIME STEP   11
 
 SOLVING FOR HEAD 
                                                   Max.-Head-Change                         Max.-Flux-Residual
  Residual-Control   Outer-Iter.   Inner-Iter.     Column Row Layer    Maximum-Head-Change  Column Row Layer    Maximum-Flux-Residual          L2-NORM 
          0                 1           2             5    8     1      -0.1541717098E-01       5    8    1        -0.8549092478E+00      0.2518184913E+01
          0                 2           2             5    8     1      -0.3857643735E-02       5    8    1        -0.2093630842E+00      0.3676377086E+00
          0                 3           2             5    8     1      -0.9686208130E-03       5    8    1        -0.5280308487E-01      0.8238062134E-01
          0                 4           2             5    8     1      -0.2442018273E-03       5    8    1        -0.1324771827E-01      0.2283989935E-01
          0                 5           1             4    7     1      -0.6717795366E-04       4    7    1        -0.3557737814E-02      0.6562977157E-02

    ------------------------------------------------
       NWT REQUIRED            5 OUTER ITERATIONS 
       AND A TOTAL OF          9 INNER ITERATIONS.
    ------------------------------------------------

 NO OUTPUT CONTROL FOR STRESS PERIOD   38   TIME STEP   12
 
 SOLVING FOR HEAD 
                                                   Max.-Head-Change                         Max.-Flux-Residual
  Residual-Control   Outer-Iter.   Inner-Iter.     Column Row Layer    Maximum-Head-Change  Column Row Layer    Maximum-Flux-Residual          L2-NORM 
          0                 1           2             5    8     1      -0.1411726014E-01       5    8    1        -0.7825436012E+00      0.2465069649E+01
          0                 2           2             5    8     1      -0.3536912459E-02       5    8    1        -0.1917386968E+00      0.3525100285E+00
          0                 3           2             5    8     1      -0.8893959135E-03       5    8    1        -0.4843367626E-01      0.7800965947E-01
          0                 4           2             5    8     1      -0.2246048717E-03       5    8    1        -0.1216935827E-01      0.2169300038E-01
          0                 5           1             4    7     1      -0.6466228776E-04       4    7    1        -0.3423687247E-02      0.6257202675E-02

    ------------------------------------------------
       NWT REQUIRED            5 OUTER ITERATIONS 
       AND A TOTAL OF          9 INNER ITERATIONS.
    ------------------------------------------------

 NO OUTPUT CONTROL FOR STRESS PERIOD   38   TIME STEP   13
 
 SOLVING FOR HEAD 
                                                   Max.-Head-Change                         Max.-Flux-Residual
  Residual-Control   Outer-Iter.   Inner-Iter.     Column Row Layer    Maximum-Head-Change  Column Row Layer    Maximum-Flux-Residual          L2-NORM 
          0                 1           2             5    8     1      -0.1293641063E-01       5    8    1        -0.7168718594E+00      0.2416650647E+01
          0                 2           2             5    8     1      -0.3245204003E-02       5    8    1        -0.1757219970E+00      0.3387392949E+00
          0                 3           2             5    8     1      -0.8172374987E-03       5    8    1        -0.4445831837E-01      0.7395426610E-01
          0                 4           2             5    8     1      -0.2067261465E-03       5    8    1        -0.1118675797E-01      0.2061641677E-01
          0                 5           1             4    7     1      -0.6224471241E-04       4    7    1        -0.3295139007E-02      0.5967126679E-02

    ------------------------------------------------
       NWT REQUIRED            5 OUTER ITERATIONS 
       AND A TOTAL OF          9 INNER ITERATIONS.
    ------------------------------------------------

 NO OUTPUT CONTROL FOR STRESS PERIOD   38   TIME STEP   14
 
 SOLVING FOR HEAD 
                                                   Max.-Head-Change                         Max.-Flux-Residual
  Residual-Control   Outer-Iter.   Inner-Iter.     Column Row Layer    Maximum-Head-Change  Column Row Layer    Maximum-Flux-Residual          L2-NORM 
          0                 1           2             3    5     1       0.1267594533E-01       5    8    1        -0.6572000901E+00      0.2372266254E+01
          0                 2           2             5    8     1      -0.2979554155E-02       5    8    1        -0.1611478369E+00      0.3261545862E+00
          0                 3           2             5    8     1      -0.7514310664E-03       5    8    1        -0.4083686277E-01      0.7017545124E-01
          0                 4           2             4    7     1      -0.1986047430E-03       4    7    1        -0.1051369595E-01      0.1960161962E-01
          0                 5           1             4    7     1      -0.5991289139E-04       4    7    1        -0.3171377618E-02      0.5690965376E-02

    ------------------------------------------------
       NWT REQUIRED            5 OUTER ITERATIONS 
       AND A TOTAL OF          9 INNER ITERATIONS.
    ------------------------------------------------

 NO OUTPUT CONTROL FOR STRESS PERIOD   38   TIME STEP   15
 
 SOLVING FOR HEAD 
                                                   Max.-Head-Change                         Max.-Flux-Residual
  Residual-Control   Outer-Iter.   Inner-Iter.     Column Row Layer    Maximum-Head-Change  Column Row Layer    Maximum-Flux-Residual          L2-NORM 
          0                 1           2             3    5     1       0.1251039613E-01       5    8    1        -0.6029153183E+00      0.2331385009E+01
          0                 2           2             5    8     1      -0.2737336608E-02       5    8    1        -0.1478701305E+00      0.3146136573E+00
          0                 3           2             5    8     1      -0.6913420754E-03       5    8    1        -0.3753371470E-01      0.6664086997E-01
          0                 4           2             4    7     1      -0.1911237901E-03       4    7    1        -0.1011690951E-01      0.1864163938E-01
          0                 5           1             4    7     1      -0.5765995689E-04       4    7    1        -0.3051994451E-02      0.5427291056E-02

    ------------------------------------------------
       NWT REQUIRED            5 OUTER ITERATIONS 
       AND A TOTAL OF          9 INNER ITERATIONS.
    ------------------------------------------------

 NO OUTPUT CONTROL FOR STRESS PERIOD   38   TIME STEP   16
 
 SOLVING FOR HEAD 
                                                   Max.-Head-Change                         Max.-Flux-Residual
  Residual-Control   Outer-Iter.   Inner-Iter.     Column Row Layer    Maximum-Head-Change  Column Row Layer    Maximum-Flux-Residual          L2-NORM 
          0                 1           2             3    5     1       0.1234709950E-01       5    8    1        -0.5534434838E+00      0.2293535573E+01
          0                 2           2             5    8     1      -0.2516083753E-02       5    8    1        -0.1357516781E+00      0.3039888160E+00
          0                 3           2             5    8     1      -0.6363733771E-03       5    8    1        -0.3451542208E-01      0.6332113433E-01
          0                 4           2             4    7     1      -0.1838869151E-03       4    7    1        -0.9733654129E-02      0.1773006549E-01
          0                 5           1             4    7     1      -0.5547648548E-04       4    7    1        -0.2936447840E-02      0.5174758842E-02

    ------------------------------------------------
       NWT REQUIRED            5 OUTER ITERATIONS 
       AND A TOTAL OF          9 INNER ITERATIONS.
    ------------------------------------------------

 NO OUTPUT CONTROL FOR STRESS PERIOD   38   TIME STEP   17
 
 SOLVING FOR HEAD 
                                                   Max.-Head-Change                         Max.-Flux-Residual
  Residual-Control   Outer-Iter.   Inner-Iter.     Column Row Layer    Maximum-Head-Change  Column Row Layer    Maximum-Flux-Residual          L2-NORM 
          0                 1           2             3    5     1       0.1218656861E-01       7    8    1         0.5374249424E+00      0.2258350051E+01
          0                 2           2             5    8     1      -0.2313679111E-02       5    8    1        -0.1246748063E+00      0.2941815764E+00
          0                 3           2             4    7     1      -0.5864430645E-03       5    8    1        -0.3175329436E-01      0.6019501753E-01
          0                 4           2             4    7     1      -0.1768851868E-03       4    7    1        -0.9363344015E-02      0.1686261365E-01
          0                 5           1             4    7     1      -0.5336056707E-04       4    7    1        -0.2824606463E-02      0.4932577136E-02

    ------------------------------------------------
       NWT REQUIRED            5 OUTER ITERATIONS 
       AND A TOTAL OF          9 INNER ITERATIONS.
    ------------------------------------------------

 NO OUTPUT CONTROL FOR STRESS PERIOD   38   TIME STEP   18
 
 SOLVING FOR HEAD 
                                                   Max.-Head-Change                         Max.-Flux-Residual
  Residual-Control   Outer-Iter.   Inner-Iter.     Column Row Layer    Maximum-Head-Change  Column Row Layer    Maximum-Flux-Residual          L2-NORM 
          0                 1           2             3    5     1       0.1202832153E-01       7    8    1         0.5314470111E+00      0.2225508451E+01
          0                 2           2             5    8     1      -0.2128315844E-02       5    8    1        -0.1145390486E+00      0.2851022985E+00
          0                 3           2             4    7     1      -0.5639536204E-03       4    7    1        -0.2988152153E-01      0.5724196093E-01
          0                 4           2             4    7     1      -0.1700851575E-03       4    7    1        -0.9004084752E-02      0.1603478775E-01
          0                 5           1             4    7     1      -0.5130297855E-04       4    7    1        -0.2715948526E-02      0.4699797892E-02

    ------------------------------------------------
       NWT REQUIRED            5 OUTER ITERATIONS 
       AND A TOTAL OF          9 INNER ITERATIONS.
    ------------------------------------------------

 NO OUTPUT CONTROL FOR STRESS PERIOD   38   TIME STEP   19
 
 SOLVING FOR HEAD 
                                                   Max.-Head-Change                         Max.-Flux-Residual
  Residual-Control   Outer-Iter.   Inner-Iter.     Column Row Layer    Maximum-Head-Change  Column Row Layer    Maximum-Flux-Residual          L2-NORM 
          0                 1           2             3    5     1       0.1187335109E-01       7    8    1         0.5254937871E+00      0.2194757827E+01
          0                 2           2             5    8     1      -0.1958176744E-02       5    8    1        -0.1052435998E+00      0.2766772922E+00
          0                 3           2             4    7     1      -0.5421514360E-03       4    7    1        -0.2872966120E-01      0.5444568074E-01
          0                 4           2             4    7     1      -0.1634843536E-03       4    7    1        -0.8655678491E-02      0.1524326441E-01
          0                 5           1             4    7     1      -0.4930343205E-04       4    7    1        -0.2610441271E-02      0.4475794035E-02

    ------------------------------------------------
       NWT REQUIRED            5 OUTER ITERATIONS 
       AND A TOTAL OF          9 INNER ITERATIONS.
    ------------------------------------------------

 NO OUTPUT CONTROL FOR STRESS PERIOD   38   TIME STEP   20
 
 SOLVING FOR HEAD 
                                                   Max.-Head-Change                         Max.-Flux-Residual
  Residual-Control   Outer-Iter.   Inner-Iter.     Column Row Layer    Maximum-Head-Change  Column Row Layer    Maximum-Flux-Residual          L2-NORM 
          0                 1           2             3    5     1       0.1172065723E-01       7    8    1         0.5195907253E+00      0.2165849778E+01
          0                 2           2             5    8     1      -0.1801859364E-02       5    8    1        -0.9671052998E-01      0.2688419115E+00
          0                 3           2             4    7     1      -0.5209613646E-03       4    7    1        -0.2761110962E-01      0.5179227514E-01
          0                 4           2             4    7     1      -0.1570623184E-03       4    7    1        -0.8316957108E-02      0.1448511991E-01
          0                 5           1             4    7     1      -0.4735635109E-04       4    7    1        -0.2507766533E-02      0.4259966481E-02

    ------------------------------------------------
       NWT REQUIRED            5 OUTER ITERATIONS 
       AND A TOTAL OF          9 INNER ITERATIONS.
    ------------------------------------------------

 NO OUTPUT CONTROL FOR STRESS PERIOD   38   TIME STEP   21
 
 SOLVING FOR HEAD 
                                                   Max.-Head-Change                         Max.-Flux-Residual
  Residual-Control   Outer-Iter.   Inner-Iter.     Column Row Layer    Maximum-Head-Change  Column Row Layer    Maximum-Flux-Residual          L2-NORM 
          0                 1           2             3    5     1       0.1157122376E-01       7    8    1         0.5137266132E+00      0.2138618268E+01
          0                 2           2             4    7     1      -0.1660276561E-02       5    8    1        -0.8886277221E-01      0.2615429439E+00
          0                 3           2             4    7     1      -0.5003407128E-03       4    7    1        -0.2652338234E-01      0.4926990759E-01
          0                 4           1             4    7     1      -0.1508077363E-03       4    7    1        -0.7987261354E-02      0.1375776697E-01
          0                 5           1             4    7     1      -0.4545873934E-04       4    7    1        -0.2407749667E-02      0.4051819828E-02

    ------------------------------------------------
       NWT REQUIRED            5 OUTER ITERATIONS 
       AND A TOTAL OF          8 INNER ITERATIONS.
    ------------------------------------------------

 NO OUTPUT CONTROL FOR STRESS PERIOD   38   TIME STEP   22
 
 SOLVING FOR HEAD 
                                                   Max.-Head-Change                         Max.-Flux-Residual
  Residual-Control   Outer-Iter.   Inner-Iter.     Column Row Layer    Maximum-Head-Change  Column Row Layer    Maximum-Flux-Residual          L2-NORM 
          0                 1           2             4    8     1      -0.1183792092E-01       4    8    1        -0.6404975094E+00      0.2199597282E+01
          0                 2           2             4    8     1      -0.3043980864E-02       4    8    1        -0.1623505227E+00      0.2980368953E+00
          0                 3           2             4    8     1      -0.7843631007E-03       4    8    1        -0.4196212080E-01      0.6133303684E-01
          0                 4           2             4    8     1      -0.2025918795E-03       4    8    1        -0.1080658712E-01      0.1646803821E-01
          0                 5           1             4    8     1      -0.5246716217E-04       4    8    1        -0.2793520350E-02      0.4607139289E-02

    ------------------------------------------------
       NWT REQUIRED            5 OUTER ITERATIONS 
       AND A TOTAL OF          9 INNER ITERATIONS.
    ------------------------------------------------

 NO OUTPUT CONTROL FOR STRESS PERIOD   38   TIME STEP   23
 
 SOLVING FOR HEAD 
                                                   Max.-Head-Change                         Max.-Flux-Residual
  Residual-Control   Outer-Iter.   Inner-Iter.     Column Row Layer    Maximum-Head-Change  Column Row Layer    Maximum-Flux-Residual          L2-NORM 
          0                 1           2             4    8     1      -0.1855571301E-01       4    8    1        -0.1005283328E+01      0.2311368469E+01
          0                 2           2             4    8     1      -0.4737640374E-02       4    8    1        -0.2543503803E+00      0.3542068517E+00
          0                 3           2             4    8     1      -0.1211673931E-02       4    8    1        -0.6515345598E-01      0.7881469293E-01
          0                 4           2             4    8     1      -0.3104878304E-03       4    8    1        -0.1665935781E-01      0.2080741931E-01
          0                 5           1             4    8     1      -0.7973413980E-04       4    8    1        -0.4271630844E-02      0.5656836875E-02

    ------------------------------------------------
       NWT REQUIRED            5 OUTER ITERATIONS 
       AND A TOTAL OF          9 INNER ITERATIONS.
    ------------------------------------------------

 NO OUTPUT CONTROL FOR STRESS PERIOD   38   TIME STEP   24
 
 SOLVING FOR HEAD 
                                                   Max.-Head-Change                         Max.-Flux-Residual
  Residual-Control   Outer-Iter.   Inner-Iter.     Column Row Layer    Maximum-Head-Change  Column Row Layer    Maximum-Flux-Residual          L2-NORM 
          0                 1           2             4    8     1      -0.1749747178E-01       4    8    1        -0.9475253785E+00      0.2287853025E+01
          0                 2           2             4    8     1      -0.4470871416E-02       4    8    1        -0.2398871683E+00      0.3492755928E+00
          0                 3           2             4    8     1      -0.1144501543E-02       4    8    1        -0.6149886383E-01      0.7723205333E-01
          0                 4           2             4    8     1      -0.2935846528E-03       4    8    1        -0.1574006491E-01      0.2026979868E-01
          0                 5           1             4    8     1      -0.7548075340E-04       4    8    1        -0.4040314969E-02      0.5472994940E-02

    ------------------------------------------------
       NWT REQUIRED            5 OUTER ITERATIONS 
       AND A TOTAL OF          9 INNER ITERATIONS.
    ------------------------------------------------

 NO OUTPUT CONTROL FOR STRESS PERIOD   38   TIME STEP   25
 
 SOLVING FOR HEAD 
                                                   Max.-Head-Change                         Max.-Flux-Residual
  Residual-Control   Outer-Iter.   Inner-Iter.     Column Row Layer    Maximum-Head-Change  Column Row Layer    Maximum-Flux-Residual          L2-NORM 
          0                 1           2             5    7     1      -0.1843231300E-01       5    7    1        -0.1013233890E+01      0.2440520491E+01
          0                 2           2             5    7     1      -0.4602552895E-02       5    7    1        -0.2511949388E+00      0.4136146240E+00
          0                 3           2             5    7     1      -0.1153374274E-02       5    7    1        -0.6289180313E-01      0.9573942402E-01
          0                 4           2             5    7     1      -0.2901785366E-03       5    7    1        -0.1576941901E-01      0.2492965291E-01
          0                 5           1             5    7     1      -0.7332738236E-04       5    7    1        -0.3972193360E-02      0.6648147891E-02

    ------------------------------------------------
       NWT REQUIRED            5 OUTER ITERATIONS 
       AND A TOTAL OF          9 INNER ITERATIONS.
    ------------------------------------------------

 NO OUTPUT CONTROL FOR STRESS PERIOD   38   TIME STEP   26
 
 SOLVING FOR HEAD 
                                                   Max.-Head-Change                         Max.-Flux-Residual
  Residual-Control   Outer-Iter.   Inner-Iter.     Column Row Layer    Maximum-Head-Change  Column Row Layer    Maximum-Flux-Residual          L2-NORM 
          0                 1           2             5    7     1      -0.1703377005E-01       5    7    1        -0.9350788700E+00      0.2377303324E+01
          0                 2           2             5    7     1      -0.4261567400E-02       5    7    1        -0.2322631674E+00      0.3956339840E+00
          0                 3           2             5    7     1      -0.1070171011E-02       5    7    1        -0.5826477092E-01      0.9114292363E-01
          0                 4           2             5    7     1      -0.2698589157E-03       5    7    1        -0.1464080359E-01      0.2383944716E-01
          0                 5           1             4    8     1      -0.6837529525E-04       5    7    1        -0.3696481286E-02      0.6392456797E-02

    ------------------------------------------------
       NWT REQUIRED            5 OUTER ITERATIONS 
       AND A TOTAL OF          9 INNER ITERATIONS.
    ------------------------------------------------

 NO OUTPUT CONTROL FOR STRESS PERIOD   38   TIME STEP   27
 
 SOLVING FOR HEAD 
                                                   Max.-Head-Change                         Max.-Flux-Residual
  Residual-Control   Outer-Iter.   Inner-Iter.     Column Row Layer    Maximum-Head-Change  Column Row Layer    Maximum-Flux-Residual          L2-NORM 
          0                 1           2             5    7     1      -0.1577268066E-01       5    7    1        -0.8647054012E+00      0.2320306183E+01
          0                 2           2             5    7     1      -0.3953484425E-02       5    7    1        -0.2151820683E+00      0.3793972550E+00
          0                 3           2             5    7     1      -0.9948271983E-03       5    7    1        -0.5408179126E-01      0.8694482738E-01
          0                 4           2             5    7     1      -0.2514117963E-03       5    7    1        -0.1361810499E-01      0.2283448531E-01
          0                 5           1             4    8     1      -0.6503232155E-04       4    8    1        -0.3465192390E-02      0.6153865951E-02

    ------------------------------------------------
       NWT REQUIRED            5 OUTER ITERATIONS 
       AND A TOTAL OF          9 INNER ITERATIONS.
    ------------------------------------------------

 NO OUTPUT CONTROL FOR STRESS PERIOD   38   TIME STEP   28
 
 SOLVING FOR HEAD 
                                                   Max.-Head-Change                         Max.-Flux-Residual
  Residual-Control   Outer-Iter.   Inner-Iter.     Column Row Layer    Maximum-Head-Change  Column Row Layer    Maximum-Flux-Residual          L2-NORM 
          0                 1           2             5    7     1      -0.1463298495E-01       5    7    1        -0.8011984016E+00      0.2268566946E+01
          0                 2           2             5    7     1      -0.3674498070E-02       5    7    1        -0.1997359994E+00      0.3646347741E+00
          0                 3           2             5    7     1      -0.9264447238E-03       5    7    1        -0.5029165856E-01      0.8308321897E-01
          0                 4           2             4    8     1      -0.2390104814E-03       4    8    1        -0.1275186309E-01      0.2190087090E-01
          0                 5           1             4    8     1      -0.6190308699E-04       4    8    1        -0.3295494817E-02      0.5929404972E-02

    ------------------------------------------------
       NWT REQUIRED            5 OUTER ITERATIONS 
       AND A TOTAL OF          9 INNER ITERATIONS.
    ------------------------------------------------

 NO OUTPUT CONTROL FOR STRESS PERIOD   38   TIME STEP   29
 
 SOLVING FOR HEAD 
                                                   Max.-Head-Change                         Max.-Flux-Residual
  Residual-Control   Outer-Iter.   Inner-Iter.     Column Row Layer    Maximum-Head-Change  Column Row Layer    Maximum-Flux-Residual          L2-NORM 
          0                 1           2             4    7     1      -0.2100767160E-01       4    7    1        -0.1125146508E+01      0.2467244199E+01
          0                 2           2             4    7     1      -0.5418953618E-02       4    7    1        -0.2892569229E+00      0.4462789311E+00
          0                 3           2             4    7     1      -0.1399103209E-02       4    7    1        -0.7470440682E-01      0.1060599198E+00
          0                 4           2             4    7     1      -0.3615974101E-03       4    7    1        -0.1928801011E-01      0.2745152200E-01
          0                 5           1             4    7     1      -0.9355998290E-04       4    7    1        -0.4986573427E-02      0.7187975742E-02

    ------------------------------------------------
       NWT REQUIRED            5 OUTER ITERATIONS 
       AND A TOTAL OF          9 INNER ITERATIONS.
    ------------------------------------------------

 NO OUTPUT CONTROL FOR STRESS PERIOD   38   TIME STEP   30



 STREAM LISTING     PERIOD     38   STEP       30

 LAYER ROW COL. STREAM  RCH.  FLOW INTO     FLOW TO   FLOW OUT OF   OVRLND.     DIRECT     STREAM       STREAM     STREAM     STREAM   STREAMBED  STREAMBED
                SEG.NO.  NO.  STRM. RCH.    AQUIFER    STRM. RCH.    RUNOFF     PRECIP       ET          HEAD       DEPTH      WIDTH   CONDCTNC.   GRADIENT

   1    1    1     1     1    1.4250E+01  1.8168E-01   1.4068E+01  0.000E+00  0.000E+00  0.000E+00  1.09404E+03  9.953E-01  1.011E+01  4.547E-02  1.332E+00
   1    2    2     1     2    1.4068E+01  2.7999E-01   1.3788E+01  0.000E+00  0.000E+00  0.000E+00  1.08905E+03  9.906E-01  1.002E+01  7.016E-02  1.330E+00
   1    3    3     1     3    1.3788E+01  2.3744E-01   1.3550E+01  0.000E+00  0.000E+00  0.000E+00  1.08340E+03  9.852E-01  9.930E+00  5.958E-02  1.328E+00
   1    3    4     1     4    1.3550E+01  2.1755E-01   1.3333E+01  0.000E+00  0.000E+00  0.000E+00  1.07839E+03  9.805E-01  9.847E+00  5.465E-02  1.327E+00
   1    4    5     2     1    1.1333E+01  2.9214E-01   1.1041E+01  0.000E+00  0.000E+00  0.000E+00  1.07268E+03  7.454E-01  1.200E+01  7.800E-02  1.248E+00
   1    5    6     2     2    1.1041E+01  2.2410E-01   1.0817E+01  0.000E+00  0.000E+00  0.000E+00  1.06724E+03  7.350E-01  1.200E+01  6.000E-02  1.245E+00
   1    6    6     2     3    1.0817E+01  2.2356E-01   1.0593E+01  0.000E+00  0.000E+00  0.000E+00  1.06252E+03  7.259E-01  1.200E+01  6.000E-02  1.242E+00
   1    7    6     2     4    1.0593E+01  2.2301E-01   1.0370E+01  0.000E+00  0.000E+00  0.000E+00  1.05779E+03  7.168E-01  1.200E+01  6.000E-02  1.239E+00
   1    8    6     2     5    1.0370E+01  2.2246E-01   1.0148E+01  0.000E+00  0.000E+00  0.000E+00  1.05307E+03  7.076E-01  1.200E+01  6.000E-02  1.236E+00
   1    3    5     3     1    2.0000E+00  2.8252E-01   1.7175E+00  0.000E+00  0.000E+00  0.000E+00  1.07555E+03  1.909E+00  9.636E+00  7.227E-02  1.955E+00
   1    3    6     3     2    1.7175E+00  2.4905E-01   1.4684E+00  0.000E+00  0.000E+00  0.000E+00  1.07264E+03  1.727E+00  8.909E+00  6.682E-02  1.864E+00
   1    3    7     3     3    1.4684E+00  1.9718E-01   1.2712E+00  0.000E+00  0.000E+00  0.000E+00  1.06987E+03  1.555E+00  8.218E+00  5.547E-02  1.777E+00
   1    4    8     3     4    1.2712E+00  2.2567E-01   1.0456E+00  0.000E+00  0.000E+00  0.000E+00  1.06682E+03  1.364E+00  7.455E+00  6.709E-02  1.682E+00
   1    5    8     3     5    1.0456E+00  1.5790E-01   8.8768E-01  0.000E+00  0.000E+00  0.000E+00  1.06362E+03  1.164E+00  6.655E+00  4.991E-02  1.582E+00
   1    6    8     3     6    8.8768E-01  5.5980E-02   8.3170E-01  0.000E+00  0.000E+00  0.000E+00  1.06158E+03  1.036E+00  6.145E+00  1.844E-02  1.518E+00
   1    5   10     4     1    1.0000E+01  9.0919E-02   9.9091E+00  0.000E+00  0.000E+00  0.000E+00  1.07836E+03  6.368E-01  1.000E+01  2.500E-02  1.212E+00
   1    5    9     4     2    9.9091E+00  1.8158E-01   9.7275E+00  0.000E+00  0.000E+00  0.000E+00  1.07154E+03  6.315E-01  1.000E+01  5.000E-02  1.211E+00
   1    6    8     4     3    9.7275E+00  1.2689E-01   9.6006E+00  0.000E+00  0.000E+00  0.000E+00  1.06381E+03  6.256E-01  1.000E+01  3.500E-02  1.209E+00
   1    6    8     5     1    1.0432E+01  2.2686E-01   1.0205E+01  0.000E+00  0.000E+00  0.000E+00  1.05868E+03  6.790E-01  1.542E+01  6.166E-02  1.226E+00
   1    7    7     5     2    1.0205E+01  2.7894E-01   9.9265E+00  0.000E+00  0.000E+00  0.000E+00  1.05417E+03  6.732E-01  1.519E+01  7.594E-02  1.224E+00
   1    8    7     5     3    9.9265E+00  1.9221E-01   9.7343E+00  0.000E+00  0.000E+00  0.000E+00  1.04992E+03  6.676E-01  1.497E+01  5.241E-02  1.223E+00
   1    8    6     5     4    9.7343E+00  1.3577E-01   9.5985E+00  0.000E+00  0.000E+00  0.000E+00  1.04691E+03  6.637E-01  1.482E+01  3.706E-02  1.221E+00
   1    9    6     6     1    1.9746E+01  2.4336E-01   1.9503E+01  0.000E+00  0.000E+00  0.000E+00  1.04378E+03  1.056E+00  1.200E+01  6.000E-02  1.352E+00
   1   10    7     6     2    1.9503E+01  2.4289E-01   1.9260E+01  0.000E+00  0.000E+00  0.000E+00  1.03923E+03  1.048E+00  1.200E+01  6.000E-02  1.349E+00
   1   11    7     6     3    1.9260E+01  2.4241E-01   1.9018E+01  0.000E+00  0.000E+00  0.000E+00  1.03468E+03  1.040E+00  1.200E+01  6.000E-02  1.347E+00
   1   12    7     6     4    1.9018E+01  2.4194E-01   1.8776E+01  0.000E+00  0.000E+00  0.000E+00  1.03012E+03  1.032E+00  1.200E+01  6.000E-02  1.344E+00
   1   13    7     6     5    1.8776E+01  4.9739E-03   1.8771E+01  0.000E+00  0.000E+00  0.000E+00  1.02694E+03  1.028E+00  1.200E+01  2.400E-02  6.908E-02
   1   14    9     7     1    1.5000E+02  1.3718E+00   1.4863E+02  0.000E+00  0.000E+00  0.000E+00  1.03987E+03  2.288E+00  5.529E+01  5.593E-01  8.176E-01
   1   13    8     7     2    1.4863E+02  1.9461E+00   1.4668E+02  0.000E+00  0.000E+00  0.000E+00  1.03478E+03  2.279E+00  5.525E+01  6.147E-01  1.055E+00
   1   13    7     7     3    1.4668E+02  1.6520E+00   1.4503E+02  0.000E+00  0.000E+00  0.000E+00  1.02969E+03  2.269E+00  5.521E+01  5.584E-01  9.862E-01
   1   13    6     8     1    1.6380E+02  1.0602E+00   1.6274E+02  0.000E+00  0.000E+00  0.000E+00  1.02478E+03  2.908E+00  4.216E+01  4.297E-01  8.225E-01
   1   13    5     8     2    1.6274E+02  3.0203E-01   1.6244E+02  0.000E+00  0.000E+00  0.000E+00  1.01853E+03  2.903E+00  4.210E+01  4.290E-01  2.347E-01
   1   13    4     8     3    1.6244E+02 -2.0197E+00   1.6446E+02  0.000E+00  0.000E+00  0.000E+00  1.01228E+03  2.909E+00  4.218E+01  4.298E+00 -1.566E-01
   1   13    3     8     4    1.6446E+02 -3.4311E+00   1.6789E+02  0.000E+00  0.000E+00  0.000E+00  1.00605E+03  2.927E+00  4.244E+01  4.325E+00 -2.644E-01
   1   13    2     8     5    1.6789E+02 -2.5262E+00   1.7042E+02  0.000E+00  0.000E+00  0.000E+00  9.99822E+02  2.947E+00  4.273E+01  4.354E+00 -1.934E-01
   1   13    1     8     6    1.7042E+02 -1.9754E+00   1.7239E+02  0.000E+00  0.000E+00  0.000E+00  9.94836E+02  2.961E+00  4.294E+01  2.625E+00 -2.508E-01
   1    8    6     9     1    0.0000E+00  0.0000E+00   0.0000E+00  0.000E+00  0.000E+00  0.000E+00  1.07875E+03  0.000E+00  4.000E+00  0.000E+00  1.000E+00
   1    8    5     9     2    0.0000E+00  0.0000E+00   0.0000E+00  0.000E+00  0.000E+00  0.000E+00  1.07825E+03  0.000E+00  4.000E+00  0.000E+00  1.000E+00





UNSATURATED ZONE PACKAGE VOLUMETRIC BUDGET FOR  TIME STEP    30 STRESS PERIOD   38
  ------------------------------------------------------------------------------



     CUMULATIVE VOLUMES      L**3       RATES FOR THIS TIME STEP      L**3/T
     ------------------                 ------------------------

           IN:                                      IN:
           ---                                      ---
        INFILTRATION =  9761765803.6370          INFILTRATION =           0.8475

          OUT:                                     OUT:
          ----                                     ----
              UZF ET =  1288179934.1967                UZF ET =           0.7500
        UZF RECHARGE =  8076260175.9174          UZF RECHARGE =           4.4383

            IN - OUT =   397325693.5229              IN - OUT =          -4.3408

          STORAGE:                                 STORAGE:
          --------                                 --------
      STORAGE CHANGE =   398638480.5625        STORAGE CHANGE =          -4.3408

 PERCENT DISCREPANCY IS DIFFERENCE BETWEEN IN-OUT MINUS CHANGE IN STORAGE
 DIVIDED BY THE AVERAGE OF IN AND OUT TIMES 100

 PERCENT DISCREPANCY =          -0.00     PERCENT DISCREPANCY =           0.00






1
  VOLUMETRIC BUDGET FOR AGRICULTURAL FIELDS AT  END OF TIME STEP   30, STRESS PERIOD  38
  ------------------------------------------------------------------------------

     CUMULATIVE VOLUMES      L**3       RATES FOR THIS TIME STEP      L**3/T
     ------------------                 ------------------------

           IN:                                      IN:
           ---                                      ---
               AG WELLS  =  8726962176.0000                 AG WELLS  =           0.0000
      DIVERSION SEGMENTS =   952273088.0000        DIVERSION SEGMENTS =           0.0000
       IRRIGATION PONDS  =           0.0000         IRRIGATION PONDS  =           0.0000
           GW IRRIGATION =           0.0000             GW IRRIGATION =           0.0000
           SW IRRIGATION =           0.0000             SW IRRIGATION =           0.0000
        SYSTEM LOSSES GW =           0.0000          SYSTEM LOSSES GW =           0.0000
        SYSTEM LOSSES SW =           0.0000          SYSTEM LOSSES SW =           0.0000

                TOTAL IN =  9679235072.0000                  TOTAL IN =           0.0000

          OUT:                                     OUT:
          ----                                     ----
               AG WELLS  =           0.0000                 AG WELLS  =           0.0000
      DIVERSION SEGMENTS =           0.0000        DIVERSION SEGMENTS =           0.0000
       IRRIGATION PONDS  =           0.0000         IRRIGATION PONDS  =           0.0000
           GW IRRIGATION =  8726962176.0000             GW IRRIGATION =           0.0000
           SW IRRIGATION =   952291008.0000             SW IRRIGATION =           0.0000
        SYSTEM LOSSES GW =           0.0000          SYSTEM LOSSES GW =           0.0000
        SYSTEM LOSSES SW =           0.0000          SYSTEM LOSSES SW =           0.0000

               TOTAL OUT =  9679253504.0000                 TOTAL OUT =           0.0000

                IN - OUT =      -18432.0000                  IN - OUT =           0.0000

     PERCENT DISCREPANCY =          -0.00         PERCENT DISCREPANCY =           0.00



1
  VOLUMETRIC BUDGET FOR ENTIRE MODEL AT END OF TIME STEP   30, STRESS PERIOD  38
  ------------------------------------------------------------------------------

     CUMULATIVE VOLUMES      L**3       RATES FOR THIS TIME STEP      L**3/T
     ------------------                 ------------------------

           IN:                                      IN:
           ---                                      ---
             STORAGE     =  7141450752.0000               STORAGE     =           5.6646
       CONSTANT HEAD     =           0.0000         CONSTANT HEAD     =           0.0000
     HEAD DEP BOUNDS     =    27918378.0000       HEAD DEP BOUNDS     =           0.2882
      STREAM LEAKAGE     =  1197918976.0000        STREAM LEAKAGE     =          11.8111
        UZF RECHARGE     =  8076259840.0000          UZF RECHARGE     =           4.4383
               GW ET     =           0.0000                 GW ET     =           0.0000
     SURFACE LEAKAGE     =           0.0000       SURFACE LEAKAGE     =           0.0000
           AG WELLS      =           0.0000             AG WELLS      =           0.0000

                TOTAL IN = 16443547648.0000                  TOTAL IN =          22.2022

          OUT:                                     OUT:
          ----                                     ----
             STORAGE     =  6689298944.0000               STORAGE     =          11.9656
       CONSTANT HEAD     =           0.0000         CONSTANT HEAD     =           0.0000
     HEAD DEP BOUNDS     =    28284044.0000       HEAD DEP BOUNDS     =           0.2884
      STREAM LEAKAGE     =   997490624.0000        STREAM LEAKAGE     =           9.9524
        UZF RECHARGE     =           0.0000          UZF RECHARGE     =           0.0000
               GW ET     =     1409387.3750                 GW ET     =           0.0000
     SURFACE LEAKAGE     =           0.0000       SURFACE LEAKAGE     =           0.0000
           AG WELLS      =  8726962176.0000             AG WELLS      =           0.0000

               TOTAL OUT = 16443445248.0000                 TOTAL OUT =          22.2063

                IN - OUT =      102400.0000                  IN - OUT =      -4.1504E-03

     PERCENT DISCREPANCY =           0.00         PERCENT DISCREPANCY =          -0.02






         TIME SUMMARY AT END OF TIME STEP   30 IN STRESS PERIOD   38
                    SECONDS     MINUTES      HOURS       DAYS        YEARS
                    -----------------------------------------------------------
   TIME STEP LENGTH  87667.      1461.1      24.352      1.0147     2.77799E-03
 STRESS PERIOD TIME 2.63000E+06  43833.      730.56      30.440     8.33397E-02
         TOTAL TIME 9.73959E+07 1.62326E+06  27054.      1127.3      3.0863    
1
1
                            STRESS PERIOD NO.   39, LENGTH =   2630000.    
                            -----------------------------------------------

                              NUMBER OF TIME STEPS =    30

                               MULTIPLIER FOR DELT =     1.000

                            INITIAL TIME STEP SIZE =   87666.66    

 REUSING NON-PARAMETER GHB CELLS FROM LAST STRESS PERIOD

      2 GHB CELLS

 REUSING STREAM SEGMENT DATA FROM LAST STRESS PERIOD



            AREAL INFILTRATION RATE
 READING ON UNIT   19 WITH FORMAT: (FREE)              

            1           2           3           4           5           6           7           8           9          10
 ........................................................................................................................
   1   1.0000E-10  2.0000E-10   0.000       0.000       0.000       0.000       0.000       0.000       0.000       0.000    
   2   2.0000E-10  1.0000E-10  2.0000E-10   0.000       0.000      8.0000E-10  8.0000E-10  5.0000E-10   0.000       0.000    
   3    0.000      5.0000E-10  1.0000E-10  1.0000E-10  8.0000E-10  8.0000E-10  5.0000E-10  5.0000E-10   0.000       0.000    
   4   8.0000E-10  5.0000E-10  1.0000E-10  1.0000E-10  1.0000E-10  1.0000E-10  1.0000E-10  1.0000E-10  2.0000E-10   0.000    
   5   8.0000E-10  5.0000E-10  1.0000E-10  1.0000E-10  1.0000E-10  1.0000E-10  1.0000E-10  1.0000E-10  1.0000E-10  1.0000E-10
   6   8.0000E-10  5.0000E-10  5.0000E-10  2.0000E-10  2.0000E-10  1.0000E-10  1.0000E-10  1.0000E-10  1.0000E-10  5.0000E-10
   7   8.0000E-10  5.0000E-10  5.0000E-10  2.0000E-10  2.0000E-10  1.0000E-10  1.0000E-10  2.0000E-10  2.0000E-10   0.000    
   8    0.000      5.0000E-10  5.0000E-10  2.0000E-10  2.0000E-10  1.0000E-10  1.0000E-10  2.0000E-10  5.0000E-10   0.000    
   9    0.000      5.0000E-10  5.0000E-10  2.0000E-10  2.0000E-10  1.0000E-10  1.0000E-10  2.0000E-10  5.0000E-10   0.000    
  10    0.000      5.0000E-10  5.0000E-10  2.0000E-10  2.0000E-10  1.0000E-10  1.0000E-10  2.0000E-10  5.0000E-10  8.0000E-10
  11    0.000      1.0000E-10  1.0000E-10  1.0000E-10  1.0000E-10  1.0000E-10  1.0000E-10  2.0000E-10  5.0000E-10   0.000    
  12   1.0000E-10  1.0000E-10  1.0000E-10  1.0000E-10  1.0000E-10  1.0000E-10  1.0000E-10  1.0000E-10  2.0000E-10   0.000    
  13   1.0000E-10  1.0000E-10  2.0000E-10  2.0000E-10  2.0000E-10  2.0000E-10  2.0000E-10  1.0000E-10  1.0000E-10   0.000    
  14    0.000      2.0000E-10  5.0000E-10  5.0000E-10  5.0000E-10  5.0000E-10  5.0000E-10  2.0000E-10  1.0000E-10   0.000    
  15    0.000       0.000      8.0000E-10  8.0000E-10  8.0000E-10  8.0000E-10   0.000       0.000       0.000       0.000    

                  ET RATE =  5.000000E-10

 USING ET EXTINCTION DEPTH FROM PREVIOUS STRESS PERIOD. CURRENT PERIOD IS:      39

 USING EXTINCTION WATER CONTENT FROM PREVIOUS STRESS PERIOD. CURRENT PERIOD IS:      39

 USING AIR ENTRY PRESSURE FROM PREVIOUS STRESS PERIOD. CURRENT PERIOD IS:      39

 USING ROOT PRESSURE HEAD FROM PREVIOUS STRESS PERIOD. CURRENT PERIOD IS:      39

 USING ROOT ACTIVITY FROM PREVIOUS STRESS PERIOD. CURRENT PERIOD IS:      39

 PROCESSING AG STRESS PERIOD DATA

 READING AG STRESS PERIOD DATA

 READING IRRIGATION SEGMENT

 READING IRRIGATION WELL

 READING SUPPLEMENTAL WELL

 NO IRRPOND OR REUSING IRRPOND DATA FROM LAST STRESS PERIOD

 END PROCESSING AG STRESS PERIOD DATA OPTIONS
 
 SOLVING FOR HEAD 
                                                   Max.-Head-Change                         Max.-Flux-Residual
  Residual-Control   Outer-Iter.   Inner-Iter.     Column Row Layer    Maximum-Head-Change  Column Row Layer    Maximum-Flux-Residual          L2-NORM 
          0                 1           2             4    7     1      -0.2120807458E-01       4    7    1        -0.1136649943E+01      0.2441648334E+01
          0                 2           2             4    7     1      -0.5465049682E-02       4    7    1        -0.2919393518E+00      0.4414626594E+00
          0                 3           2             4    7     1      -0.1409688803E-02       4    7    1        -0.7531804772E-01      0.1049424082E+00
          0                 4           2             4    7     1      -0.3640262965E-03       4    7    1        -0.1942905236E-01      0.2718259511E-01
          0                 5           1             4    7     1      -0.9411753143E-04       4    7    1        -0.5018923335E-02      0.7124238868E-02

    ------------------------------------------------
       NWT REQUIRED            5 OUTER ITERATIONS 
       AND A TOTAL OF          9 INNER ITERATIONS.
    ------------------------------------------------

 NO OUTPUT CONTROL FOR STRESS PERIOD   39   TIME STEP    1
 
 SOLVING FOR HEAD 
                                                   Max.-Head-Change                         Max.-Flux-Residual
  Residual-Control   Outer-Iter.   Inner-Iter.     Column Row Layer    Maximum-Head-Change  Column Row Layer    Maximum-Flux-Residual          L2-NORM 
          0                 1           2             4    7     1      -0.2028671989E-01       4    7    1        -0.1086742505E+01      0.2446701108E+01
          0                 2           2             4    7     1      -0.5232419875E-02       4    7    1        -0.2793091361E+00      0.4473182484E+00
          0                 3           2             4    7     1      -0.1351366714E-02       4    7    1        -0.7213234462E-01      0.1069775813E+00
          0                 4           2             4    7     1      -0.3495093638E-03       4    7    1        -0.1863218532E-01      0.2774576393E-01
          0                 5           1             4    7     1      -0.9053109139E-04       4    7    1        -0.4820980999E-02      0.7277654964E-02

    ------------------------------------------------
       NWT REQUIRED            5 OUTER ITERATIONS 
       AND A TOTAL OF          9 INNER ITERATIONS.
    ------------------------------------------------

 NO OUTPUT CONTROL FOR STRESS PERIOD   39   TIME STEP    2
 
 SOLVING FOR HEAD 
                                                   Max.-Head-Change                         Max.-Flux-Residual
  Residual-Control   Outer-Iter.   Inner-Iter.     Column Row Layer    Maximum-Head-Change  Column Row Layer    Maximum-Flux-Residual          L2-NORM 
          0                 1           2             4    7     1      -0.1942564429E-01       4    7    1        -0.1039900938E+01      0.2508095056E+01
          0                 2           2             4    7     1      -0.5016210105E-02       4    7    1        -0.2675251759E+00      0.4712544153E+00
          0                 3           2             4    7     1      -0.1297448433E-02       4    7    1        -0.6917603164E-01      0.1135721684E+00
          0                 4           2             4    7     1      -0.3361634300E-03       4    7    1        -0.1789660329E-01      0.2941132888E-01
          0                 5           1             4    7     1      -0.8725542407E-04       4    7    1        -0.4639304961E-02      0.7703876002E-02

    ------------------------------------------------
       NWT REQUIRED            5 OUTER ITERATIONS 
       AND A TOTAL OF          9 INNER ITERATIONS.
    ------------------------------------------------

 NO OUTPUT CONTROL FOR STRESS PERIOD   39   TIME STEP    3
 
 SOLVING FOR HEAD 
                                                   Max.-Head-Change                         Max.-Flux-Residual
  Residual-Control   Outer-Iter.   Inner-Iter.     Column Row Layer    Maximum-Head-Change  Column Row Layer    Maximum-Flux-Residual          L2-NORM 
          0                 1           2             4    7     1      -0.1862226462E-01       4    7    1        -0.9961944434E+00      0.2444117591E+01
          0                 2           2             4    7     1      -0.4813416101E-02       4    7    1        -0.2565311496E+00      0.4538926535E+00
          0                 3           2             4    7     1      -0.1246212213E-02       4    7    1        -0.6639728560E-01      0.1091169865E+00
          0                 4           2             4    7     1      -0.3232083725E-03       4    7    1        -0.1719456048E-01      0.2831507188E-01
          0                 5           1             4    7     1      -0.8397756753E-04       4    7    1        -0.4461750256E-02      0.7436111735E-02

    ------------------------------------------------
       NWT REQUIRED            5 OUTER ITERATIONS 
       AND A TOTAL OF          9 INNER ITERATIONS.
    ------------------------------------------------

 NO OUTPUT CONTROL FOR STRESS PERIOD   39   TIME STEP    4
 
 SOLVING FOR HEAD 
                                                   Max.-Head-Change                         Max.-Flux-Residual
  Residual-Control   Outer-Iter.   Inner-Iter.     Column Row Layer    Maximum-Head-Change  Column Row Layer    Maximum-Flux-Residual          L2-NORM 
          0                 1           2             4    7     1      -0.1786987706E-01       4    7    1        -0.9553294366E+00      0.2383731154E+01
          0                 2           2             4    7     1      -0.4623037956E-02       4    7    1        -0.2462282047E+00      0.4377697097E+00
          0                 3           2             4    7     1      -0.1197992772E-02       4    7    1        -0.6378686989E-01      0.1049741973E+00
          0                 4           2             4    7     1      -0.3109842023E-03       4    7    1        -0.1653338173E-01      0.2729126976E-01
          0                 5           1             4    7     1      -0.8087609280E-04       4    7    1        -0.4294087045E-02      0.7184688145E-02

    ------------------------------------------------
       NWT REQUIRED            5 OUTER ITERATIONS 
       AND A TOTAL OF          9 INNER ITERATIONS.
    ------------------------------------------------

 NO OUTPUT CONTROL FOR STRESS PERIOD   39   TIME STEP    5
 
 SOLVING FOR HEAD 
                                                   Max.-Head-Change                         Max.-Flux-Residual
  Residual-Control   Outer-Iter.   Inner-Iter.     Column Row Layer    Maximum-Head-Change  Column Row Layer    Maximum-Flux-Residual          L2-NORM 
          0                 1           2             4    7     1      -0.1716313870E-01       4    7    1        -0.9170044890E+00      0.2327815562E+01
          0                 2           2             4    7     1      -0.4443800930E-02       4    7    1        -0.2365443001E+00      0.4227895422E+00
          0                 3           2             4    7     1      -0.1152487368E-02       4    7    1        -0.6132760992E-01      0.1011026687E+00
          0                 4           2             4    7     1      -0.2994194621E-03       4    7    1        -0.1590899458E-01      0.2632974574E-01
          0                 5           1             4    7     1      -0.7793426970E-04       4    7    1        -0.4135355907E-02      0.6947211915E-02

    ------------------------------------------------
       NWT REQUIRED            5 OUTER ITERATIONS 
       AND A TOTAL OF          9 INNER ITERATIONS.
    ------------------------------------------------

 NO OUTPUT CONTROL FOR STRESS PERIOD   39   TIME STEP    6
 
 SOLVING FOR HEAD 
                                                   Max.-Head-Change                         Max.-Flux-Residual
  Residual-Control   Outer-Iter.   Inner-Iter.     Column Row Layer    Maximum-Head-Change  Column Row Layer    Maximum-Flux-Residual          L2-NORM 
          0                 1           2             4    7     1      -0.1649815918E-01       4    7    1        -0.8809982501E+00      0.2275806673E+01
          0                 2           2             4    7     1      -0.4274788003E-02       4    7    1        -0.2274271670E+00      0.4088158428E+00
          0                 3           2             4    7     1      -0.1109481215E-02       4    7    1        -0.5900719545E-01      0.9746994442E-01
          0                 4           2             4    7     1      -0.2884642705E-03       4    7    1        -0.1531852215E-01      0.2542291683E-01
          0                 5           1             4    7     1      -0.7514064990E-04       4    7    1        -0.3984890625E-02      0.6721931787E-02

    ------------------------------------------------
       NWT REQUIRED            5 OUTER ITERATIONS 
       AND A TOTAL OF          9 INNER ITERATIONS.
    ------------------------------------------------

 NO OUTPUT CONTROL FOR STRESS PERIOD   39   TIME STEP    7
 
 SOLVING FOR HEAD 
                                                   Max.-Head-Change                         Max.-Flux-Residual
  Residual-Control   Outer-Iter.   Inner-Iter.     Column Row Layer    Maximum-Head-Change  Column Row Layer    Maximum-Flux-Residual          L2-NORM 
          0                 1           2             4    7     1      -0.1587070938E-01       4    7    1        -0.8470732896E+00      0.2227167388E+01
          0                 2           2             4    7     1      -0.4114982025E-02       4    7    1        -0.2188196658E+00      0.3957135501E+00
          0                 3           2             4    7     1      -0.1068730621E-02       4    7    1        -0.5681188831E-01      0.9404345038E-01
          0                 4           2             4    7     1      -0.2780605490E-03       4    7    1        -0.1475867766E-01      0.2456318052E-01
          0                 5           1             4    7     1      -0.7248148630E-04       4    7    1        -0.3841909128E-02      0.6507106567E-02

    ------------------------------------------------
       NWT REQUIRED            5 OUTER ITERATIONS 
       AND A TOTAL OF          9 INNER ITERATIONS.
    ------------------------------------------------

 NO OUTPUT CONTROL FOR STRESS PERIOD   39   TIME STEP    8
 
 SOLVING FOR HEAD 
                                                   Max.-Head-Change                         Max.-Flux-Residual
  Residual-Control   Outer-Iter.   Inner-Iter.     Column Row Layer    Maximum-Head-Change  Column Row Layer    Maximum-Flux-Residual          L2-NORM 
          0                 1           2             4    7     1      -0.1527759327E-01       4    7    1        -0.8150482860E+00      0.2181514732E+01
          0                 2           2             4    7     1      -0.3963626061E-02       4    7    1        -0.2106788043E+00      0.3833867395E+00
          0                 3           2             4    7     1      -0.1030057262E-02       4    7    1        -0.5473151215E-01      0.9080040334E-01
          0                 4           2             4    7     1      -0.2681665811E-03       4    7    1        -0.1422706819E-01      0.2374530807E-01
          0                 5           1             4    7     1      -0.6994711410E-04       4    7    1        -0.3705852904E-02      0.6301562021E-02

    ------------------------------------------------
       NWT REQUIRED            5 OUTER ITERATIONS 
       AND A TOTAL OF          9 INNER ITERATIONS.
    ------------------------------------------------

 NO OUTPUT CONTROL FOR STRESS PERIOD   39   TIME STEP    9
 
 SOLVING FOR HEAD 
                                                   Max.-Head-Change                         Max.-Flux-Residual
  Residual-Control   Outer-Iter.   Inner-Iter.     Column Row Layer    Maximum-Head-Change  Column Row Layer    Maximum-Flux-Residual          L2-NORM 
          0                 1           2             4    7     1      -0.1471600828E-01       4    7    1        -0.7847645453E+00      0.2138516060E+01
          0                 2           2             4    7     1      -0.3820054924E-02       4    7    1        -0.2029668523E+00      0.3717557203E+00
          0                 3           2             4    7     1      -0.9933042721E-03       4    7    1        -0.5275711900E-01      0.8772243443E-01
          0                 4           2             4    7     1      -0.2587456927E-03       4    7    1        -0.1372158843E-01      0.2296523751E-01
          0                 5           1             4    7     1      -0.6752905904E-04       4    7    1        -0.3576231158E-02      0.6104439769E-02

    ------------------------------------------------
       NWT REQUIRED            5 OUTER ITERATIONS 
       AND A TOTAL OF          9 INNER ITERATIONS.
    ------------------------------------------------

 NO OUTPUT CONTROL FOR STRESS PERIOD   39   TIME STEP   10
 
 SOLVING FOR HEAD 
                                                   Max.-Head-Change                         Max.-Flux-Residual
  Residual-Control   Outer-Iter.   Inner-Iter.     Column Row Layer    Maximum-Head-Change  Column Row Layer    Maximum-Flux-Residual          L2-NORM 
          0                 1           2             4    7     1      -0.1420549143E-01       4    7    1        -0.7560679820E+00      0.2109605877E+01
          0                 2           2             4    7     1      -0.3694344144E-02       4    7    1        -0.1960728737E+00      0.3636601295E+00
          0                 3           2             4    7     1      -0.9611912777E-03       4    7    1        -0.5104249655E-01      0.8483314241E-01
          0                 4           2             4    7     1      -0.2501841178E-03       4    7    1        -0.1327887178E-01      0.2191023447E-01
          0                 5           1             4    7     1      -0.6514390059E-04       4    7    1        -0.3456767086E-02      0.5718289856E-02

    ------------------------------------------------
       NWT REQUIRED            5 OUTER ITERATIONS 
       AND A TOTAL OF          9 INNER ITERATIONS.
    ------------------------------------------------

 NO OUTPUT CONTROL FOR STRESS PERIOD   39   TIME STEP   11
 
 SOLVING FOR HEAD 
                                                   Max.-Head-Change                         Max.-Flux-Residual
  Residual-Control   Outer-Iter.   Inner-Iter.     Column Row Layer    Maximum-Head-Change  Column Row Layer    Maximum-Flux-Residual          L2-NORM 
          0                 1           2             4    6     1      -0.2030648569E-01       4    6    1        -0.1094368609E+01      0.2319172848E+01
          0                 2           2             4    6     1      -0.5208107328E-02       4    6    1        -0.2789254981E+00      0.4442684504E+00
          0                 3           2             4    6     1      -0.1336653303E-02       4    6    1        -0.7169657696E-01      0.1078372179E+00
          0                 4           2             4    6     1      -0.3432750667E-03       4    6    1        -0.1839441895E-01      0.2790585131E-01
          0                 5           1             4    6     1      -0.8821466770E-04       4    6    1        -0.4725061386E-02      0.7269446155E-02

    ------------------------------------------------
       NWT REQUIRED            5 OUTER ITERATIONS 
       AND A TOTAL OF          9 INNER ITERATIONS.
    ------------------------------------------------

 NO OUTPUT CONTROL FOR STRESS PERIOD   39   TIME STEP   12
 
 SOLVING FOR HEAD 
                                                   Max.-Head-Change                         Max.-Flux-Residual
  Residual-Control   Outer-Iter.   Inner-Iter.     Column Row Layer    Maximum-Head-Change  Column Row Layer    Maximum-Flux-Residual          L2-NORM 
          0                 1           2             4    6     1      -0.1928887638E-01       4    6    1        -0.1038814543E+01      0.2267094343E+01
          0                 2           2             4    6     1      -0.4950600162E-02       4    6    1        -0.2650189474E+00      0.4302358351E+00
          0                 3           2             4    6     1      -0.1271430531E-02       4    6    1        -0.6816372297E-01      0.1041145804E+00
          0                 4           2             4    6     1      -0.3267400103E-03       4    6    1        -0.1750021506E-01      0.2694466334E-01
          0                 5           1             4    6     1      -0.8401900293E-04       4    6    1        -0.4498283916E-02      0.7021276665E-02

    ------------------------------------------------
       NWT REQUIRED            5 OUTER ITERATIONS 
       AND A TOTAL OF          9 INNER ITERATIONS.
    ------------------------------------------------

 NO OUTPUT CONTROL FOR STRESS PERIOD   39   TIME STEP   13
 
 SOLVING FOR HEAD 
                                                   Max.-Head-Change                         Max.-Flux-Residual
  Residual-Control   Outer-Iter.   Inner-Iter.     Column Row Layer    Maximum-Head-Change  Column Row Layer    Maximum-Flux-Residual          L2-NORM 
          0                 1           2             4    6     1      -0.1833863138E-01       4    6    1        -0.9869811556E+00      0.2217887172E+01
          0                 2           2             4    6     1      -0.4709909446E-02       4    6    1        -0.2520286982E+00      0.4169239761E+00
          0                 3           2             4    6     1      -0.1210409874E-02       4    6    1        -0.6486074552E-01      0.1005722723E+00
          0                 4           2             4    6     1      -0.3112560287E-03       4    6    1        -0.1666340438E-01      0.2602869342E-01
          0                 5           1             4    6     1      -0.8008650374E-04       4    6    1        -0.4286142849E-02      0.6784654169E-02

    ------------------------------------------------
       NWT REQUIRED            5 OUTER ITERATIONS 
       AND A TOTAL OF          9 INNER ITERATIONS.
    ------------------------------------------------

 NO OUTPUT CONTROL FOR STRESS PERIOD   39   TIME STEP   14
 
 SOLVING FOR HEAD 
                                                   Max.-Head-Change                         Max.-Flux-Residual
  Residual-Control   Outer-Iter.   Inner-Iter.     Column Row Layer    Maximum-Head-Change  Column Row Layer    Maximum-Flux-Residual          L2-NORM 
          0                 1           2             4    6     1      -0.1745061665E-01       4    6    1        -0.9385815336E+00      0.2171303188E+01
          0                 2           2             4    6     1      -0.4484769989E-02       4    6    1        -0.2398852493E+00      0.4042783633E+00
          0                 3           2             4    6     1      -0.1153279233E-02       4    6    1        -0.6177040830E-01      0.9719692071E-01
          0                 4           2             4    6     1      -0.2967460512E-03       4    6    1        -0.1587976119E-01      0.2515471461E-01
          0                 5           1             4    6     1      -0.7639811744E-04       4    6    1        -0.4087019748E-02      0.6558520509E-02

    ------------------------------------------------
       NWT REQUIRED            5 OUTER ITERATIONS 
       AND A TOTAL OF          9 INNER ITERATIONS.
    ------------------------------------------------

 NO OUTPUT CONTROL FOR STRESS PERIOD   39   TIME STEP   15
 
 SOLVING FOR HEAD 
                                                   Max.-Head-Change                         Max.-Flux-Residual
  Residual-Control   Outer-Iter.   Inner-Iter.     Column Row Layer    Maximum-Head-Change  Column Row Layer    Maximum-Flux-Residual          L2-NORM 
          0                 1           2             4    6     1      -0.1661964724E-01       4    6    1        -0.8933275122E+00      0.2127100662E+01
          0                 2           2             4    6     1      -0.4273901087E-02       4    6    1        -0.2285182519E+00      0.3922396620E+00
          0                 3           2             4    6     1      -0.1099722009E-02       4    6    1        -0.5887525991E-01      0.9397610840E-01
          0                 4           2             4    6     1      -0.2831317480E-03       4    6    1        -0.1514494550E-01      0.2431974632E-01
          0                 5           1             4    6     1      -0.7293444765E-04       4    6    1        -0.3900142550E-02      0.6342248334E-02

    ------------------------------------------------
       NWT REQUIRED            5 OUTER ITERATIONS 
       AND A TOTAL OF          9 INNER ITERATIONS.
    ------------------------------------------------

 NO OUTPUT CONTROL FOR STRESS PERIOD   39   TIME STEP   16
 
 SOLVING FOR HEAD 
                                                   Max.-Head-Change                         Max.-Flux-Residual
  Residual-Control   Outer-Iter.   Inner-Iter.     Column Row Layer    Maximum-Head-Change  Column Row Layer    Maximum-Flux-Residual          L2-NORM 
          0                 1           2             4    6     1      -0.1584128360E-01       4    6    1        -0.8509729273E+00      0.2085073314E+01
          0                 2           2             4    6     1      -0.4076200714E-02       4    6    1        -0.2178674128E+00      0.3807723466E+00
          0                 3           2             4    6     1      -0.1049464353E-02       4    6    1        -0.5616026037E-01      0.9089787506E-01
          0                 4           2             4    6     1      -0.2703449932E-03       4    6    1        -0.1445522366E-01      0.2352077785E-01
          0                 5           1             4    6     1      -0.6967852910E-04       4    6    1        -0.3724581836E-02      0.6135123189E-02

    ------------------------------------------------
       NWT REQUIRED            5 OUTER ITERATIONS 
       AND A TOTAL OF          9 INNER ITERATIONS.
    ------------------------------------------------

 NO OUTPUT CONTROL FOR STRESS PERIOD   39   TIME STEP   17
 
 SOLVING FOR HEAD 
                                                   Max.-Head-Change                         Max.-Flux-Residual
  Residual-Control   Outer-Iter.   Inner-Iter.     Column Row Layer    Maximum-Head-Change  Column Row Layer    Maximum-Flux-Residual          L2-NORM 
          0                 1           2             4    6     1      -0.1511150709E-01       4    6    1        -0.8112938585E+00      0.2045109274E+01
          0                 2           2             4    6     1      -0.3890677196E-02       4    6    1        -0.2078782654E+00      0.3698315083E+00
          0                 3           2             4    6     1      -0.1002261338E-02       4    6    1        -0.5361189744E-01      0.8795328468E-01
          0                 4           2             4    6     1      -0.2583252405E-03       4    6    1        -0.1380726221E-01      0.2275567860E-01
          0                 5           1             4    6     1      -0.6661538114E-04       4    6    1        -0.3559513095E-02      0.5936641367E-02

    ------------------------------------------------
       NWT REQUIRED            5 OUTER ITERATIONS 
       AND A TOTAL OF          9 INNER ITERATIONS.
    ------------------------------------------------

 NO OUTPUT CONTROL FOR STRESS PERIOD   39   TIME STEP   18
 
 SOLVING FOR HEAD 
                                                   Max.-Head-Change                         Max.-Flux-Residual
  Residual-Control   Outer-Iter.   Inner-Iter.     Column Row Layer    Maximum-Head-Change  Column Row Layer    Maximum-Flux-Residual          L2-NORM 
          0                 1           2             4    6     1      -0.1442613249E-01       4    6    1        -0.7740582834E+00      0.2006990572E+01
          0                 2           2             4    6     1      -0.3716362553E-02       4    6    1        -0.1984939670E+00      0.3593551182E+00
          0                 3           2             4    6     1      -0.9578727809E-03       4    6    1        -0.5121723178E-01      0.8513271512E-01
          0                 4           2             4    6     1      -0.2470128463E-03       4    6    1        -0.1319776874E-01      0.2202215134E-01
          0                 5           1             4    6     1      -0.6373017993E-04       4    6    1        -0.3404124206E-02      0.5746191109E-02

    ------------------------------------------------
       NWT REQUIRED            5 OUTER ITERATIONS 
       AND A TOTAL OF          9 INNER ITERATIONS.
    ------------------------------------------------

 NO OUTPUT CONTROL FOR STRESS PERIOD   39   TIME STEP   19
 
 SOLVING FOR HEAD 
                                                   Max.-Head-Change                         Max.-Flux-Residual
  Residual-Control   Outer-Iter.   Inner-Iter.     Column Row Layer    Maximum-Head-Change  Column Row Layer    Maximum-Flux-Residual          L2-NORM 
          0                 1           2             4    6     1      -0.1378241426E-01       4    6    1        -0.7391033105E+00      0.1970618293E+01
          0                 2           2             4    6     1      -0.3552363938E-02       4    6    1        -0.1896782969E+00      0.3493835726E+00
          0                 3           2             4    6     1      -0.9160762820E-03       4    6    1        -0.4896319607E-01      0.8242828907E-01
          0                 4           2             4    6     1      -0.2363523453E-03       4    6    1        -0.1262377121E-01      0.2131803292E-01
          0                 5           1             4    6     1      -0.6100907632E-04       4    6    1        -0.3257653809E-02      0.5563267072E-02

    ------------------------------------------------
       NWT REQUIRED            5 OUTER ITERATIONS 
       AND A TOTAL OF          9 INNER ITERATIONS.
    ------------------------------------------------

 NO OUTPUT CONTROL FOR STRESS PERIOD   39   TIME STEP   20
 
 SOLVING FOR HEAD 
                                                   Max.-Head-Change                         Max.-Flux-Residual
  Residual-Control   Outer-Iter.   Inner-Iter.     Column Row Layer    Maximum-Head-Change  Column Row Layer    Maximum-Flux-Residual          L2-NORM 
          0                 1           2             4    6     1      -0.1317686832E-01       4    6    1        -0.7062500320E+00      0.1935854489E+01
          0                 2           2             4    6     1      -0.3398028508E-02       4    6    1        -0.1813825113E+00      0.3398186753E+00
          0                 3           2             4    6     1      -0.8767103484E-03       4    6    1        -0.4684179341E-01      0.7983364779E-01
          0                 4           2             4    6     1      -0.2263037632E-03       4    6    1        -0.1208300696E-01      0.2064197110E-01
          0                 5           1             4    6     1      -0.5844217068E-04       4    6    1        -0.3119561708E-02      0.5387535446E-02

    ------------------------------------------------
       NWT REQUIRED            5 OUTER ITERATIONS 
       AND A TOTAL OF          9 INNER ITERATIONS.
    ------------------------------------------------

 NO OUTPUT CONTROL FOR STRESS PERIOD   39   TIME STEP   21
 
 SOLVING FOR HEAD 
                                                   Max.-Head-Change                         Max.-Flux-Residual
  Residual-Control   Outer-Iter.   Inner-Iter.     Column Row Layer    Maximum-Head-Change  Column Row Layer    Maximum-Flux-Residual          L2-NORM 
          0                 1           2             4    6     1      -0.1260684956E-01       4    6    1        -0.6753483336E+00      0.1902572058E+01
          0                 2           2             4    6     1      -0.3252627620E-02       4    6    1        -0.1735710327E+00      0.3306538473E+00
          0                 3           2             4    6     1      -0.8395933604E-03       4    6    1        -0.4484277682E-01      0.7734130180E-01
          0                 4           2             4    6     1      -0.2168217852E-03       4    6    1        -0.1157301823E-01      0.1999202181E-01
          0                 5           1             4    6     1      -0.5601814347E-04       4    6    1        -0.2989227653E-02      0.5218502459E-02

    ------------------------------------------------
       NWT REQUIRED            5 OUTER ITERATIONS 
       AND A TOTAL OF          9 INNER ITERATIONS.
    ------------------------------------------------

 NO OUTPUT CONTROL FOR STRESS PERIOD   39   TIME STEP   22
 
 SOLVING FOR HEAD 
                                                   Max.-Head-Change                         Max.-Flux-Residual
  Residual-Control   Outer-Iter.   Inner-Iter.     Column Row Layer    Maximum-Head-Change  Column Row Layer    Maximum-Flux-Residual          L2-NORM 
          0                 1           2             4    6     1      -0.1206934227E-01       4    6    1        -0.6462314049E+00      0.1870653197E+01
          0                 2           2             4    6     1      -0.3115410048E-02       4    6    1        -0.1662028656E+00      0.3218617724E+00
          0                 3           2             4    6     1      -0.8045380084E-03       4    6    1        -0.4295588355E-01      0.7494449938E-01
          0                 4           2             4    6     1      -0.2078596617E-03       4    6    1        -0.1109124866E-01      0.1936651086E-01
          0                 5           1             4    6     1      -0.5372531676E-04       4    6    1        -0.2866013287E-02      0.5055749727E-02

    ------------------------------------------------
       NWT REQUIRED            5 OUTER ITERATIONS 
       AND A TOTAL OF          9 INNER ITERATIONS.
    ------------------------------------------------

 NO OUTPUT CONTROL FOR STRESS PERIOD   39   TIME STEP   23
 
 SOLVING FOR HEAD 
                                                   Max.-Head-Change                         Max.-Flux-Residual
  Residual-Control   Outer-Iter.   Inner-Iter.     Column Row Layer    Maximum-Head-Change  Column Row Layer    Maximum-Flux-Residual          L2-NORM 
          0                 1           2             4    6     1      -0.1156214373E-01       4    6    1        -0.6187766937E+00      0.1840025485E+01
          0                 2           2             4    6     1      -0.2985830700E-02       4    6    1        -0.1592481371E+00      0.3134253876E+00
          0                 3           2             4    6     1      -0.7714093090E-03       4    6    1        -0.4117368000E-01      0.7263906519E-01
          0                 4           2             4    6     1      -0.1993839440E-03       4    6    1        -0.1063585988E-01      0.1876440155E-01
          0                 5           1             4    7     1      -0.5183450828E-04       4    6    1        -0.2749462755E-02      0.4899018182E-02

    ------------------------------------------------
       NWT REQUIRED            5 OUTER ITERATIONS 
       AND A TOTAL OF          9 INNER ITERATIONS.
    ------------------------------------------------

 NO OUTPUT CONTROL FOR STRESS PERIOD   39   TIME STEP   24
 
 SOLVING FOR HEAD 
                                                   Max.-Head-Change                         Max.-Flux-Residual
  Residual-Control   Outer-Iter.   Inner-Iter.     Column Row Layer    Maximum-Head-Change  Column Row Layer    Maximum-Flux-Residual          L2-NORM 
          0                 1           2             4    6     1      -0.1108296336E-01       4    6    1        -0.5928583559E+00      0.1810580939E+01
          0                 2           2             4    6     1      -0.2863314153E-02       4    6    1        -0.1526756238E+00      0.3053186481E+00
          0                 3           2             4    6     1      -0.7400625601E-03       4    6    1        -0.3948828686E-01      0.7041842404E-01
          0                 4           2             4    7     1      -0.1927072674E-03       4    6    1        -0.1020487220E-01      0.1818403324E-01
          0                 5           1             4    7     1      -0.5051493017E-04       4    7    1        -0.2667882231E-02      0.4747888126E-02

    ------------------------------------------------
       NWT REQUIRED            5 OUTER ITERATIONS 
       AND A TOTAL OF          9 INNER ITERATIONS.
    ------------------------------------------------

 NO OUTPUT CONTROL FOR STRESS PERIOD   39   TIME STEP   25
 
 SOLVING FOR HEAD 
                                                   Max.-Head-Change                         Max.-Flux-Residual
  Residual-Control   Outer-Iter.   Inner-Iter.     Column Row Layer    Maximum-Head-Change  Column Row Layer    Maximum-Flux-Residual          L2-NORM 
          0                 1           2             4    6     1      -0.1063026054E-01       4    6    1        -0.5683901247E+00      0.1782279774E+01
          0                 2           2             4    6     1      -0.2747481470E-02       4    6    1        -0.1464644870E+00      0.2975322212E+00
          0                 3           2             4    7     1      -0.7165014625E-03       4    6    1        -0.3789454420E-01      0.6828063952E-01
          0                 4           2             4    7     1      -0.1878071029E-03       4    7    1        -0.9919101137E-02      0.1762490526E-01
          0                 5           1             4    7     1      -0.4921610527E-04       4    7    1        -0.2599822204E-02      0.4602244581E-02

    ------------------------------------------------
       NWT REQUIRED            5 OUTER ITERATIONS 
       AND A TOTAL OF          9 INNER ITERATIONS.
    ------------------------------------------------

 NO OUTPUT CONTROL FOR STRESS PERIOD   39   TIME STEP   26
 
 SOLVING FOR HEAD 
                                                   Max.-Head-Change                         Max.-Flux-Residual
  Residual-Control   Outer-Iter.   Inner-Iter.     Column Row Layer    Maximum-Head-Change  Column Row Layer    Maximum-Flux-Residual          L2-NORM 
          0                 1           2             4    6     1      -0.1020154405E-01       4    6    1        -0.5452350890E+00      0.1755023480E+01
          0                 2           2             4    7     1      -0.2664284114E-02       4    7    1        -0.1406391993E+00      0.2900393509E+00
          0                 3           2             4    7     1      -0.6983120996E-03       4    7    1        -0.3688832806E-01      0.6621806635E-01
          0                 4           2             4    7     1      -0.1829861662E-03       4    7    1        -0.9666476325E-02      0.1708514554E-01
          0                 5           1             4    7     1      -0.4793984164E-04       4    7    1        -0.2532886763E-02      0.4461591798E-02

    ------------------------------------------------
       NWT REQUIRED            5 OUTER ITERATIONS 
       AND A TOTAL OF          9 INNER ITERATIONS.
    ------------------------------------------------

 NO OUTPUT CONTROL FOR STRESS PERIOD   39   TIME STEP   27
 
 SOLVING FOR HEAD 
                                                   Max.-Head-Change                         Max.-Flux-Residual
  Residual-Control   Outer-Iter.   Inner-Iter.     Column Row Layer    Maximum-Head-Change  Column Row Layer    Maximum-Flux-Residual          L2-NORM 
          0                 1           2             4    7     1      -0.9907764306E-02       4    7    1        -0.5238210702E+00      0.1728768597E+01
          0                 2           2             4    7     1      -0.2596697616E-02       4    7    1        -0.1371034867E+00      0.2828300608E+00
          0                 3           2             4    7     1      -0.6804018369E-03       4    7    1        -0.3594941638E-01      0.6422910933E-01
          0                 4           2             4    7     1      -0.1782454492E-03       4    7    1        -0.9417824083E-02      0.1656427431E-01
          0                 5           1             4    7     1      -0.4668630786E-04       4    7    1        -0.2467088197E-02      0.4325829002E-02

    ------------------------------------------------
       NWT REQUIRED            5 OUTER ITERATIONS 
       AND A TOTAL OF          9 INNER ITERATIONS.
    ------------------------------------------------

 NO OUTPUT CONTROL FOR STRESS PERIOD   39   TIME STEP   28
 
 SOLVING FOR HEAD 
                                                   Max.-Head-Change                         Max.-Flux-Residual
  Residual-Control   Outer-Iter.   Inner-Iter.     Column Row Layer    Maximum-Head-Change  Column Row Layer    Maximum-Flux-Residual          L2-NORM 
          0                 1           2             4    7     1      -0.9656589404E-02       4    7    1        -0.5106345403E+00      0.1703451378E+01
          0                 2           2             4    7     1      -0.2530151102E-02       4    7    1        -0.1336184257E+00      0.2758927269E+00
          0                 3           2             4    7     1      -0.6627909391E-03       4    7    1        -0.3502532527E-01      0.6231012207E-01
          0                 4           2             4    7     1      -0.1735896487E-03       4    7    1        -0.9173415585E-02      0.1606152241E-01
          0                 5           1             4    7     1      -0.4545658414E-04       4    7    1        -0.2402489178E-02      0.4194739679E-02

    ------------------------------------------------
       NWT REQUIRED            5 OUTER ITERATIONS 
       AND A TOTAL OF          9 INNER ITERATIONS.
    ------------------------------------------------

 NO OUTPUT CONTROL FOR STRESS PERIOD   39   TIME STEP   29
 
 SOLVING FOR HEAD 
                                                   Max.-Head-Change                         Max.-Flux-Residual
  Residual-Control   Outer-Iter.   Inner-Iter.     Column Row Layer    Maximum-Head-Change  Column Row Layer    Maximum-Flux-Residual          L2-NORM 
          0                 1           2             4    7     1      -0.9409100774E-02       4    7    1        -0.4976375831E+00      0.1865275093E+01
          0                 2           2             4    7     1      -0.2464611529E-02       4    7    1        -0.1301849073E+00      0.2806085146E+00
          0                 3           2             4    7     1      -0.6454531223E-03       4    7    1        -0.3411533306E-01      0.6067121568E-01
          0                 4           2             4    7     1      -0.1690074655E-03       4    7    1        -0.8932820412E-02      0.1556868208E-01
          0                 5           1             4    7     1      -0.4424660844E-04       4    7    1        -0.2338916751E-02      0.4065846538E-02

    ------------------------------------------------
       NWT REQUIRED            5 OUTER ITERATIONS 
       AND A TOTAL OF          9 INNER ITERATIONS.
    ------------------------------------------------

 NO OUTPUT CONTROL FOR STRESS PERIOD   39   TIME STEP   30



 STREAM LISTING     PERIOD     39   STEP       30

 LAYER ROW COL. STREAM  RCH.  FLOW INTO     FLOW TO   FLOW OUT OF   OVRLND.     DIRECT     STREAM       STREAM     STREAM     STREAM   STREAMBED  STREAMBED
                SEG.NO.  NO.  STRM. RCH.    AQUIFER    STRM. RCH.    RUNOFF     PRECIP       ET          HEAD       DEPTH      WIDTH   CONDCTNC.   GRADIENT

   1    1    1     1     1    3.2750E+01  2.7790E-01   3.2473E+01  0.000E+00  0.000E+00  0.000E+00  1.09432E+03  1.273E+00  1.445E+01  6.503E-02  1.424E+00
   1    2    2     1     2    3.2473E+01  4.3019E-01   3.2042E+01  0.000E+00  0.000E+00  0.000E+00  1.08933E+03  1.270E+00  1.439E+01  1.007E-01  1.423E+00
   1    3    3     1     3    3.2042E+01  3.6669E-01   3.1676E+01  0.000E+00  0.000E+00  0.000E+00  1.08369E+03  1.267E+00  1.432E+01  8.594E-02  1.422E+00
   1    3    4     1     4    3.1676E+01  3.3752E-01   3.1338E+01  0.000E+00  0.000E+00  0.000E+00  1.07867E+03  1.264E+00  1.426E+01  7.916E-02  1.421E+00
   1    4    5     2     1    2.9338E+01  3.3732E-01   2.9001E+01  0.000E+00  0.000E+00  0.000E+00  1.07326E+03  1.325E+00  1.200E+01  7.800E-02  1.442E+00
   1    5    6     2     2    2.9001E+01  2.5899E-01   2.8742E+01  0.000E+00  0.000E+00  0.000E+00  1.06783E+03  1.317E+00  1.200E+01  6.000E-02  1.439E+00
   1    6    6     2     3    2.8742E+01  2.5857E-01   2.8483E+01  0.000E+00  0.000E+00  0.000E+00  1.06310E+03  1.309E+00  1.200E+01  6.000E-02  1.436E+00
   1    7    6     2     4    2.8483E+01  2.5814E-01   2.8225E+01  0.000E+00  0.000E+00  0.000E+00  1.05838E+03  1.302E+00  1.200E+01  6.000E-02  1.434E+00
   1    8    6     2     5    2.8225E+01  2.5771E-01   2.7967E+01  0.000E+00  0.000E+00  0.000E+00  1.05365E+03  1.295E+00  1.200E+01  6.000E-02  1.432E+00
   1    3    5     3     1    2.0000E+00  2.8252E-01   1.7175E+00  0.000E+00  0.000E+00  0.000E+00  1.07555E+03  1.909E+00  9.636E+00  7.227E-02  1.955E+00
   1    3    6     3     2    1.7175E+00  2.4905E-01   1.4684E+00  0.000E+00  0.000E+00  0.000E+00  1.07264E+03  1.727E+00  8.909E+00  6.682E-02  1.864E+00
   1    3    7     3     3    1.4684E+00  1.9718E-01   1.2712E+00  0.000E+00  0.000E+00  0.000E+00  1.06987E+03  1.555E+00  8.218E+00  5.547E-02  1.777E+00
   1    4    8     3     4    1.2712E+00  2.2567E-01   1.0456E+00  0.000E+00  0.000E+00  0.000E+00  1.06682E+03  1.364E+00  7.455E+00  6.709E-02  1.682E+00
   1    5    8     3     5    1.0456E+00  1.5790E-01   8.8768E-01  0.000E+00  0.000E+00  0.000E+00  1.06362E+03  1.164E+00  6.655E+00  4.991E-02  1.582E+00
   1    6    8     3     6    8.8768E-01  5.5980E-02   8.3170E-01  0.000E+00  0.000E+00  0.000E+00  1.06158E+03  1.036E+00  6.145E+00  1.844E-02  1.518E+00
   1    5   10     4     1    1.0000E+01  9.0919E-02   9.9091E+00  0.000E+00  0.000E+00  0.000E+00  1.07836E+03  6.368E-01  1.000E+01  2.500E-02  1.212E+00
   1    5    9     4     2    9.9091E+00  1.8158E-01   9.7275E+00  0.000E+00  0.000E+00  0.000E+00  1.07154E+03  6.315E-01  1.000E+01  5.000E-02  1.211E+00
   1    6    8     4     3    9.7275E+00  1.2689E-01   9.6006E+00  0.000E+00  0.000E+00  0.000E+00  1.06381E+03  6.256E-01  1.000E+01  3.500E-02  1.209E+00
   1    6    8     5     1    1.0432E+01  2.2686E-01   1.0205E+01  0.000E+00  0.000E+00  0.000E+00  1.05868E+03  6.790E-01  1.542E+01  6.166E-02  1.226E+00
   1    7    7     5     2    1.0205E+01  2.7894E-01   9.9265E+00  0.000E+00  0.000E+00  0.000E+00  1.05417E+03  6.732E-01  1.519E+01  7.594E-02  1.224E+00
   1    8    7     5     3    9.9265E+00  1.9221E-01   9.7343E+00  0.000E+00  0.000E+00  0.000E+00  1.04992E+03  6.676E-01  1.497E+01  5.241E-02  1.223E+00
   1    8    6     5     4    9.7343E+00  1.3577E-01   9.5985E+00  0.000E+00  0.000E+00  0.000E+00  1.04691E+03  6.637E-01  1.482E+01  3.706E-02  1.221E+00
   1    9    6     6     1    3.7566E+01  2.7334E-01   3.7293E+01  0.000E+00  0.000E+00  0.000E+00  1.04428E+03  1.556E+00  1.200E+01  6.000E-02  1.519E+00
   1   10    7     6     2    3.7293E+01  2.7293E-01   3.7020E+01  0.000E+00  0.000E+00  0.000E+00  1.03973E+03  1.549E+00  1.200E+01  6.000E-02  1.516E+00
   1   11    7     6     3    3.7020E+01  2.7252E-01   3.6747E+01  0.000E+00  0.000E+00  0.000E+00  1.03518E+03  1.542E+00  1.200E+01  6.000E-02  1.514E+00
   1   12    7     6     4    3.6747E+01  2.7211E-01   3.6475E+01  0.000E+00  0.000E+00  0.000E+00  1.03063E+03  1.535E+00  1.200E+01  6.000E-02  1.512E+00
   1   13    7     6     5    3.6475E+01  1.7082E-02   3.6458E+01  0.000E+00  0.000E+00  0.000E+00  1.02744E+03  1.531E+00  1.200E+01  2.400E-02  2.372E-01
   1   14    9     7     1    1.5000E+02  1.3727E+00   1.4863E+02  0.000E+00  0.000E+00  0.000E+00  1.03987E+03  2.288E+00  5.529E+01  5.593E-01  8.181E-01
   1   13    8     7     2    1.4863E+02  1.9487E+00   1.4668E+02  0.000E+00  0.000E+00  0.000E+00  1.03478E+03  2.279E+00  5.525E+01  6.147E-01  1.057E+00
   1   13    7     7     3    1.4668E+02  1.6527E+00   1.4503E+02  0.000E+00  0.000E+00  0.000E+00  1.02969E+03  2.269E+00  5.521E+01  5.584E-01  9.866E-01
   1   13    6     8     1    1.8148E+02  1.1495E+00   1.8033E+02  0.000E+00  0.000E+00  0.000E+00  1.02490E+03  3.022E+00  4.382E+01  4.465E-01  8.581E-01
   1   13    5     8     2    1.8033E+02  3.5828E-01   1.7998E+02  0.000E+00  0.000E+00  0.000E+00  1.01864E+03  3.017E+00  4.375E+01  4.458E-01  2.679E-01
   1   13    4     8     3    1.7998E+02 -1.6718E+00   1.8165E+02  0.000E+00  0.000E+00  0.000E+00  1.01240E+03  3.021E+00  4.381E+01  4.464E+00 -1.248E-01
   1   13    3     8     4    1.8165E+02 -3.1201E+00   1.8477E+02  0.000E+00  0.000E+00  0.000E+00  1.00616E+03  3.036E+00  4.403E+01  4.486E+00 -2.318E-01
   1   13    2     8     5    1.8477E+02 -2.1841E+00   1.8695E+02  0.000E+00  0.000E+00  0.000E+00  9.99928E+02  3.053E+00  4.426E+01  4.511E+00 -1.614E-01
   1   13    1     8     6    1.8695E+02 -1.7755E+00   1.8873E+02  0.000E+00  0.000E+00  0.000E+00  9.94940E+02  3.065E+00  4.444E+01  2.717E+00 -2.178E-01
   1    8    6     9     1    0.0000E+00  0.0000E+00   0.0000E+00  0.000E+00  0.000E+00  0.000E+00  1.07875E+03  0.000E+00  4.000E+00  0.000E+00  1.000E+00
   1    8    5     9     2    0.0000E+00  0.0000E+00   0.0000E+00  0.000E+00  0.000E+00  0.000E+00  1.07825E+03  0.000E+00  4.000E+00  0.000E+00  1.000E+00





UNSATURATED ZONE PACKAGE VOLUMETRIC BUDGET FOR  TIME STEP    30 STRESS PERIOD   39
  ------------------------------------------------------------------------------



     CUMULATIVE VOLUMES      L**3       RATES FOR THIS TIME STEP      L**3/T
     ------------------                 ------------------------

           IN:                                      IN:
           ---                                      ---
        INFILTRATION =  9763994728.5097          INFILTRATION =           0.8475

          OUT:                                     OUT:
          ----                                     ----
              UZF ET =  1290152434.0511                UZF ET =           0.7500
        UZF RECHARGE =  8084493325.5287          UZF RECHARGE =           3.2126

            IN - OUT =   389348968.9299              IN - OUT =          -3.1151

          STORAGE:                                 STORAGE:
          --------                                 --------
      STORAGE CHANGE =   390661755.9604        STORAGE CHANGE =          -3.1151

 PERCENT DISCREPANCY IS DIFFERENCE BETWEEN IN-OUT MINUS CHANGE IN STORAGE
 DIVIDED BY THE AVERAGE OF IN AND OUT TIMES 100

 PERCENT DISCREPANCY =          -0.00     PERCENT DISCREPANCY =           0.00






1
  VOLUMETRIC BUDGET FOR AGRICULTURAL FIELDS AT  END OF TIME STEP   30, STRESS PERIOD  39
  ------------------------------------------------------------------------------

     CUMULATIVE VOLUMES      L**3       RATES FOR THIS TIME STEP      L**3/T
     ------------------                 ------------------------

           IN:                                      IN:
           ---                                      ---
               AG WELLS  =  8726962176.0000                 AG WELLS  =           0.0000
      DIVERSION SEGMENTS =   952273088.0000        DIVERSION SEGMENTS =           0.0000
       IRRIGATION PONDS  =           0.0000         IRRIGATION PONDS  =           0.0000
           GW IRRIGATION =           0.0000             GW IRRIGATION =           0.0000
           SW IRRIGATION =           0.0000             SW IRRIGATION =           0.0000
        SYSTEM LOSSES GW =           0.0000          SYSTEM LOSSES GW =           0.0000
        SYSTEM LOSSES SW =           0.0000          SYSTEM LOSSES SW =           0.0000

                TOTAL IN =  9679235072.0000                  TOTAL IN =           0.0000

          OUT:                                     OUT:
          ----                                     ----
               AG WELLS  =           0.0000                 AG WELLS  =           0.0000
      DIVERSION SEGMENTS =           0.0000        DIVERSION SEGMENTS =           0.0000
       IRRIGATION PONDS  =           0.0000         IRRIGATION PONDS  =           0.0000
           GW IRRIGATION =  8726962176.0000             GW IRRIGATION =           0.0000
           SW IRRIGATION =   952291008.0000             SW IRRIGATION =           0.0000
        SYSTEM LOSSES GW =           0.0000          SYSTEM LOSSES GW =           0.0000
        SYSTEM LOSSES SW =           0.0000          SYSTEM LOSSES SW =           0.0000

               TOTAL OUT =  9679253504.0000                 TOTAL OUT =           0.0000

                IN - OUT =      -18432.0000                  IN - OUT =           0.0000

     PERCENT DISCREPANCY =          -0.00         PERCENT DISCREPANCY =           0.00



1
  VOLUMETRIC BUDGET FOR ENTIRE MODEL AT END OF TIME STEP   30, STRESS PERIOD  39
  ------------------------------------------------------------------------------

     CUMULATIVE VOLUMES      L**3       RATES FOR THIS TIME STEP      L**3/T
     ------------------                 ------------------------

           IN:                                      IN:
           ---                                      ---
             STORAGE     =  7155133440.0000               STORAGE     =           3.7254
       CONSTANT HEAD     =           0.0000         CONSTANT HEAD     =           0.0000
     HEAD DEP BOUNDS     =    28676446.0000       HEAD DEP BOUNDS     =           0.2883
      STREAM LEAKAGE     =  1229291776.0000        STREAM LEAKAGE     =          12.7743
        UZF RECHARGE     =  8084492288.0000          UZF RECHARGE     =           3.2126
               GW ET     =           0.0000                 GW ET     =           0.0000
     SURFACE LEAKAGE     =           0.0000       SURFACE LEAKAGE     =           0.0000
           AG WELLS      =           0.0000             AG WELLS      =           0.0000

                TOTAL IN = 16497594368.0000                  TOTAL IN =          20.0006

          OUT:                                     OUT:
          ----                                     ----
             STORAGE     =  6716657664.0000               STORAGE     =          10.9630
       CONSTANT HEAD     =           0.0000         CONSTANT HEAD     =           0.0000
     HEAD DEP BOUNDS     =    29042522.0000       HEAD DEP BOUNDS     =           0.2885
      STREAM LEAKAGE     =  1023429696.0000        STREAM LEAKAGE     =           8.7516
        UZF RECHARGE     =           0.0000          UZF RECHARGE     =           0.0000
               GW ET     =     1409387.3750                 GW ET     =           0.0000
     SURFACE LEAKAGE     =           0.0000       SURFACE LEAKAGE     =           0.0000
           AG WELLS      =  8726962176.0000             AG WELLS      =           0.0000

               TOTAL OUT = 16497502208.0000                 TOTAL OUT =          20.0031

                IN - OUT =       92160.0000                  IN - OUT =      -2.4719E-03

     PERCENT DISCREPANCY =           0.00         PERCENT DISCREPANCY =          -0.01






         TIME SUMMARY AT END OF TIME STEP   30 IN STRESS PERIOD   39
                    SECONDS     MINUTES      HOURS       DAYS        YEARS
                    -----------------------------------------------------------
   TIME STEP LENGTH  87667.      1461.1      24.352      1.0147     2.77799E-03
 STRESS PERIOD TIME 2.63000E+06  43833.      730.56      30.440     8.33397E-02
         TOTAL TIME 1.00026E+08 1.66710E+06  27785.      1157.7      3.1696    
1
1
                            STRESS PERIOD NO.   40, LENGTH =   2630000.    
                            -----------------------------------------------

                              NUMBER OF TIME STEPS =    30

                               MULTIPLIER FOR DELT =     1.000

                            INITIAL TIME STEP SIZE =   87666.66    

 REUSING NON-PARAMETER GHB CELLS FROM LAST STRESS PERIOD

      2 GHB CELLS

 REUSING STREAM SEGMENT DATA FROM LAST STRESS PERIOD



            AREAL INFILTRATION RATE
 READING ON UNIT   19 WITH FORMAT: (FREE)              

            1           2           3           4           5           6           7           8           9          10
 ........................................................................................................................
   1   1.0000E-10  2.0000E-10   0.000       0.000       0.000       0.000       0.000       0.000       0.000       0.000    
   2   2.0000E-10  1.0000E-10  2.0000E-10   0.000       0.000      8.0000E-10  8.0000E-10  5.0000E-10   0.000       0.000    
   3    0.000      5.0000E-10  1.0000E-10  1.0000E-10  8.0000E-10  8.0000E-10  5.0000E-10  5.0000E-10   0.000       0.000    
   4   8.0000E-10  5.0000E-10  1.0000E-10  1.0000E-10  1.0000E-10  1.0000E-10  1.0000E-10  1.0000E-10  2.0000E-10   0.000    
   5   8.0000E-10  5.0000E-10  1.0000E-10  1.0000E-10  1.0000E-10  1.0000E-10  1.0000E-10  1.0000E-10  1.0000E-10  1.0000E-10
   6   8.0000E-10  5.0000E-10  5.0000E-10  2.0000E-10  2.0000E-10  1.0000E-10  1.0000E-10  1.0000E-10  1.0000E-10  5.0000E-10
   7   8.0000E-10  5.0000E-10  5.0000E-10  2.0000E-10  2.0000E-10  1.0000E-10  1.0000E-10  2.0000E-10  2.0000E-10   0.000    
   8    0.000      5.0000E-10  5.0000E-10  2.0000E-10  2.0000E-10  1.0000E-10  1.0000E-10  2.0000E-10  5.0000E-10   0.000    
   9    0.000      5.0000E-10  5.0000E-10  2.0000E-10  2.0000E-10  1.0000E-10  1.0000E-10  2.0000E-10  5.0000E-10   0.000    
  10    0.000      5.0000E-10  5.0000E-10  2.0000E-10  2.0000E-10  1.0000E-10  1.0000E-10  2.0000E-10  5.0000E-10  8.0000E-10
  11    0.000      1.0000E-10  1.0000E-10  1.0000E-10  1.0000E-10  1.0000E-10  1.0000E-10  2.0000E-10  5.0000E-10   0.000    
  12   1.0000E-10  1.0000E-10  1.0000E-10  1.0000E-10  1.0000E-10  1.0000E-10  1.0000E-10  1.0000E-10  2.0000E-10   0.000    
  13   1.0000E-10  1.0000E-10  2.0000E-10  2.0000E-10  2.0000E-10  2.0000E-10  2.0000E-10  1.0000E-10  1.0000E-10   0.000    
  14    0.000      2.0000E-10  5.0000E-10  5.0000E-10  5.0000E-10  5.0000E-10  5.0000E-10  2.0000E-10  1.0000E-10   0.000    
  15    0.000       0.000      8.0000E-10  8.0000E-10  8.0000E-10  8.0000E-10   0.000       0.000       0.000       0.000    

                  ET RATE =  5.000000E-10

 USING ET EXTINCTION DEPTH FROM PREVIOUS STRESS PERIOD. CURRENT PERIOD IS:      40

 USING EXTINCTION WATER CONTENT FROM PREVIOUS STRESS PERIOD. CURRENT PERIOD IS:      40

 USING AIR ENTRY PRESSURE FROM PREVIOUS STRESS PERIOD. CURRENT PERIOD IS:      40

 USING ROOT PRESSURE HEAD FROM PREVIOUS STRESS PERIOD. CURRENT PERIOD IS:      40

 USING ROOT ACTIVITY FROM PREVIOUS STRESS PERIOD. CURRENT PERIOD IS:      40

 PROCESSING AG STRESS PERIOD DATA

 READING AG STRESS PERIOD DATA

 READING IRRIGATION SEGMENT

 READING IRRIGATION WELL

 READING SUPPLEMENTAL WELL

 NO IRRPOND OR REUSING IRRPOND DATA FROM LAST STRESS PERIOD

 END PROCESSING AG STRESS PERIOD DATA OPTIONS
 
 SOLVING FOR HEAD 
                                                   Max.-Head-Change                         Max.-Flux-Residual
  Residual-Control   Outer-Iter.   Inner-Iter.     Column Row Layer    Maximum-Head-Change  Column Row Layer    Maximum-Flux-Residual          L2-NORM 
          0                 1           2             4   13     1       0.2315745073E-01       4   13    1         0.1334585095E+01      0.2949702421E+01
          0                 2           2             4    7     1      -0.2400030901E-02       4   13    1        -0.1319438492E+00      0.3537611884E+00
          0                 3           2             4    7     1      -0.6283669724E-03       4    7    1        -0.3321864137E-01      0.6070504812E-01
          0                 4           2             4    7     1      -0.1644910689E-03       4    7    1        -0.8695708827E-02      0.1508882949E-01
          0                 5           1             4    7     1      -0.4305376934E-04       4    7    1        -0.2276254064E-02      0.3937755426E-02

    ------------------------------------------------
       NWT REQUIRED            5 OUTER ITERATIONS 
       AND A TOTAL OF          9 INNER ITERATIONS.
    ------------------------------------------------

 NO OUTPUT CONTROL FOR STRESS PERIOD   40   TIME STEP    1
 
 SOLVING FOR HEAD 
                                                   Max.-Head-Change                         Max.-Flux-Residual
  Residual-Control   Outer-Iter.   Inner-Iter.     Column Row Layer    Maximum-Head-Change  Column Row Layer    Maximum-Flux-Residual          L2-NORM 
          0                 1           2             4   13     1       0.2090356358E-01       4   13    1         0.1203831843E+01      0.2795643824E+01
          0                 2           2             4    7     1      -0.2336520977E-02       4    7    1        -0.1234718579E+00      0.3380010660E+00
          0                 3           2             4    7     1      -0.6115818127E-03       4    7    1        -0.3233709464E-01      0.5867682941E-01
          0                 4           2             4    7     1      -0.1600584964E-03       4    7    1        -0.8462839639E-02      0.1461296131E-01
          0                 5           1             4    7     1      -0.4188409704E-04       4    7    1        -0.2214770216E-02      0.3813871800E-02

    ------------------------------------------------
       NWT REQUIRED            5 OUTER ITERATIONS 
       AND A TOTAL OF          9 INNER ITERATIONS.
    ------------------------------------------------

 NO OUTPUT CONTROL FOR STRESS PERIOD   40   TIME STEP    2
 
 SOLVING FOR HEAD 
                                                   Max.-Head-Change                         Max.-Flux-Residual
  Residual-Control   Outer-Iter.   Inner-Iter.     Column Row Layer    Maximum-Head-Change  Column Row Layer    Maximum-Flux-Residual          L2-NORM 
          0                 1           2             4   13     1       0.1888337422E-01       4   13    1         0.1086672838E+01      0.2658531484E+01
          0                 2           2             4    7     1      -0.2274196686E-02       4    7    1        -0.1202017174E+00      0.3237172709E+00
          0                 3           2             4    7     1      -0.5951252589E-03       4    7    1        -0.3147224498E-01      0.5674169960E-01
          0                 4           2             4    7     1      -0.1557163771E-03       4    7    1        -0.8234585774E-02      0.1415302833E-01
          0                 5           1             4    7     1      -0.4073917972E-04       4    7    1        -0.2154554671E-02      0.3694083244E-02

    ------------------------------------------------
       NWT REQUIRED            5 OUTER ITERATIONS 
       AND A TOTAL OF          9 INNER ITERATIONS.
    ------------------------------------------------

 NO OUTPUT CONTROL FOR STRESS PERIOD   40   TIME STEP    3
 
 SOLVING FOR HEAD 
                                                   Max.-Head-Change                         Max.-Flux-Residual
  Residual-Control   Outer-Iter.   Inner-Iter.     Column Row Layer    Maximum-Head-Change  Column Row Layer    Maximum-Flux-Residual          L2-NORM 
          0                 1           2             4   13     1       0.1707192017E-01       4   13    1         0.9816534135E+00      0.2536520043E+01
          0                 2           2             4    7     1      -0.2213083425E-02       4    7    1        -0.1169930754E+00      0.3107439826E+00
          0                 3           2             4    7     1      -0.5790013293E-03       4    7    1        -0.3062440264E-01      0.5489256082E-01
          0                 4           2             4    7     1      -0.1514651306E-03       4    7    1        -0.8010993031E-02      0.1370819585E-01
          0                 5           1             4    7     1      -0.3961897713E-04       4    7    1        -0.2095610924E-02      0.3578170100E-02

    ------------------------------------------------
       NWT REQUIRED            5 OUTER ITERATIONS 
       AND A TOTAL OF          9 INNER ITERATIONS.
    ------------------------------------------------

 NO OUTPUT CONTROL FOR STRESS PERIOD   40   TIME STEP    4
 
 SOLVING FOR HEAD 
                                                   Max.-Head-Change                         Max.-Flux-Residual
  Residual-Control   Outer-Iter.   Inner-Iter.     Column Row Layer    Maximum-Head-Change  Column Row Layer    Maximum-Flux-Residual          L2-NORM 
          0                 1           2             4   13     1       0.1544727029E-01       4   13    1         0.8874955522E+00      0.2427926088E+01
          0                 2           2             4    7     1      -0.2153062700E-02       4    7    1        -0.1138397201E+00      0.2989271224E+00
          0                 3           2             4    7     1      -0.5631785943E-03       4    7    1        -0.2979192243E-01      0.5312052802E-01
          0                 4           2             4    7     1      -0.1472964246E-03       4    7    1        -0.7791624873E-02      0.1327701817E-01
          0                 5           1             4    7     1      -0.3852128003E-04       4    7    1        -0.2037823230E-02      0.3465821293E-02

    ------------------------------------------------
       NWT REQUIRED            5 OUTER ITERATIONS 
       AND A TOTAL OF          9 INNER ITERATIONS.
    ------------------------------------------------

 NO OUTPUT CONTROL FOR STRESS PERIOD   40   TIME STEP    5
 
 SOLVING FOR HEAD 
                                                   Max.-Head-Change                         Max.-Flux-Residual
  Residual-Control   Outer-Iter.   Inner-Iter.     Column Row Layer    Maximum-Head-Change  Column Row Layer    Maximum-Flux-Residual          L2-NORM 
          0                 1           2             2   13     1       0.1423004067E-01       2   13    1         0.8049924285E+00      0.2331242907E+01
          0                 2           2             4    7     1      -0.2094370132E-02       4    7    1        -0.1107545158E+00      0.2881470045E+00
          0                 3           2             4    7     1      -0.5477161997E-03       4    7    1        -0.2897802455E-01      0.5142446110E-01
          0                 4           2             4    7     1      -0.1432251293E-03       4    7    1        -0.7577290369E-02      0.1286058439E-01
          0                 5           1             4    7     1      -0.3744983258E-04       4    7    1        -0.1981395073E-02      0.3357220704E-02

    ------------------------------------------------
       NWT REQUIRED            5 OUTER ITERATIONS 
       AND A TOTAL OF          9 INNER ITERATIONS.
    ------------------------------------------------

 NO OUTPUT CONTROL FOR STRESS PERIOD   40   TIME STEP    6
 
 SOLVING FOR HEAD 
                                                   Max.-Head-Change                         Max.-Flux-Residual
  Residual-Control   Outer-Iter.   Inner-Iter.     Column Row Layer    Maximum-Head-Change  Column Row Layer    Maximum-Flux-Residual          L2-NORM 
          0                 1           2             2   13     1       0.1311388507E-01       2   13    1         0.7417619615E+00      0.2245089160E+01
          0                 2           2             4    7     1      -0.2036795253E-02       4    7    1        -0.1077264562E+00      0.2782749550E+00
          0                 3           2             4    7     1      -0.5325582854E-03       4    7    1        -0.2817978467E-01      0.4979431515E-01
          0                 4           2             4    7     1      -0.1392364306E-03       4    7    1        -0.7367213628E-02      0.1245665707E-01
          0                 5           1             4    7     1      -0.3640070980E-04       4    7    1        -0.1926120754E-02      0.3251854276E-02

    ------------------------------------------------
       NWT REQUIRED            5 OUTER ITERATIONS 
       AND A TOTAL OF          9 INNER ITERATIONS.
    ------------------------------------------------

 NO OUTPUT CONTROL FOR STRESS PERIOD   40   TIME STEP    7
 
 SOLVING FOR HEAD 
                                                   Max.-Head-Change                         Max.-Flux-Residual
  Residual-Control   Outer-Iter.   Inner-Iter.     Column Row Layer    Maximum-Head-Change  Column Row Layer    Maximum-Flux-Residual          L2-NORM 
          0                 1           2             2   13     1       0.1208631691E-01       2   13    1         0.6835519743E+00      0.2168241546E+01
          0                 2           2             4    7     1      -0.1980556370E-02       4    7    1        -0.1047674867E+00      0.2692246527E+00
          0                 3           2             4    7     1      -0.5177593290E-03       4    7    1        -0.2740018301E-01      0.4822864818E-01
          0                 4           2             4    7     1      -0.1353439460E-03       4    7    1        -0.7162138525E-02      0.1206574537E-01
          0                 5           1             4    7     1      -0.3537732119E-04       4    7    1        -0.1872186317E-02      0.3149848473E-02

    ------------------------------------------------
       NWT REQUIRED            5 OUTER ITERATIONS 
       AND A TOTAL OF          9 INNER ITERATIONS.
    ------------------------------------------------

 NO OUTPUT CONTROL FOR STRESS PERIOD   40   TIME STEP    8
 
 SOLVING FOR HEAD 
                                                   Max.-Head-Change                         Max.-Flux-Residual
  Residual-Control   Outer-Iter.   Inner-Iter.     Column Row Layer    Maximum-Head-Change  Column Row Layer    Maximum-Flux-Residual          L2-NORM 
          0                 1           2             2   13     1       0.1114036450E-01       2   13    1         0.6299675802E+00      0.2108607324E+01
          0                 2           2             4    7     1      -0.1926245917E-02       4    7    1        -0.1018851890E+00      0.2651248173E+00
          0                 3           2             4    7     1      -0.5036839479E-03       4    7    1        -0.2664979204E-01      0.4817187151E-01
          0                 4           2             4    7     1      -0.1317114888E-03       4    7    1        -0.6967980991E-02      0.1204054339E-01
          0                 5           1             4    7     1      -0.3444286306E-04       4    7    1        -0.1822133040E-02      0.3134104707E-02

    ------------------------------------------------
       NWT REQUIRED            5 OUTER ITERATIONS 
       AND A TOTAL OF          9 INNER ITERATIONS.
    ------------------------------------------------

 NO OUTPUT CONTROL FOR STRESS PERIOD   40   TIME STEP    9
 
 SOLVING FOR HEAD 
                                                   Max.-Head-Change                         Max.-Flux-Residual
  Residual-Control   Outer-Iter.   Inner-Iter.     Column Row Layer    Maximum-Head-Change  Column Row Layer    Maximum-Flux-Residual          L2-NORM 
          0                 1           2             2   13     1       0.1026951132E-01       2   13    1         0.5806394482E+00      0.2050412406E+01
          0                 2           2             4    7     1      -0.1873580189E-02       4    7    1        -0.9909366317E-01      0.2591457776E+00
          0                 3           2             4    7     1      -0.4899721379E-03       4    7    1        -0.2592177580E-01      0.4732880197E-01
          0                 4           1             4    7     1      -0.1281451361E-03       4    7    1        -0.6778539615E-02      0.1182793240E-01
          0                 5           1             4    7     1      -0.3351603182E-04       4    7    1        -0.1772872331E-02      0.3076431331E-02

    ------------------------------------------------
       NWT REQUIRED            5 OUTER ITERATIONS 
       AND A TOTAL OF          8 INNER ITERATIONS.
    ------------------------------------------------

 NO OUTPUT CONTROL FOR STRESS PERIOD   40   TIME STEP   10
 
 SOLVING FOR HEAD 
                                                   Max.-Head-Change                         Max.-Flux-Residual
  Residual-Control   Outer-Iter.   Inner-Iter.     Column Row Layer    Maximum-Head-Change  Column Row Layer    Maximum-Flux-Residual          L2-NORM 
          0                 1           2             2   13     1       0.9467947199E-02       2   13    1         0.5352383921E+00      0.1994198992E+01
          0                 2           2             4    7     1      -0.1822512456E-02       4    7    1        -0.9639223125E-01      0.2517342189E+00
          0                 3           2             4    7     1      -0.4766205014E-03       4    7    1        -0.2521530896E-01      0.4586165754E-01
          0                 4           1             4    7     1      -0.1246519415E-03       4    7    1        -0.6593831952E-02      0.1145891740E-01
          0                 5           1             4    7     1      -0.3260159783E-04       4    7    1        -0.1724537359E-02      0.2981241317E-02

    ------------------------------------------------
       NWT REQUIRED            5 OUTER ITERATIONS 
       AND A TOTAL OF          8 INNER ITERATIONS.
    ------------------------------------------------

 NO OUTPUT CONTROL FOR STRESS PERIOD   40   TIME STEP   11
 
 SOLVING FOR HEAD 
                                                   Max.-Head-Change                         Max.-Flux-Residual
  Residual-Control   Outer-Iter.   Inner-Iter.     Column Row Layer    Maximum-Head-Change  Column Row Layer    Maximum-Flux-Residual          L2-NORM 
          0                 1           2             2   13     1       0.8730040037E-02       2   13    1         0.4934451842E+00      0.1943626062E+01
          0                 2           2             4    7     1      -0.1772827675E-02       4    7    1        -0.9376535220E-01      0.2448651550E+00
          0                 3           2             4    7     1      -0.4636216849E-03       4    7    1        -0.2452783266E-01      0.4445323380E-01
          0                 4           1             4    7     1      -0.1212491377E-03       4    7    1        -0.6413973226E-02      0.1110237254E-01
          0                 5           1             4    7     1      -0.3171040966E-04       4    7    1        -0.1677446176E-02      0.2889128266E-02

    ------------------------------------------------
       NWT REQUIRED            5 OUTER ITERATIONS 
       AND A TOTAL OF          8 INNER ITERATIONS.
    ------------------------------------------------

 NO OUTPUT CONTROL FOR STRESS PERIOD   40   TIME STEP   12
 
 SOLVING FOR HEAD 
                                                   Max.-Head-Change                         Max.-Flux-Residual
  Residual-Control   Outer-Iter.   Inner-Iter.     Column Row Layer    Maximum-Head-Change  Column Row Layer    Maximum-Flux-Residual          L2-NORM 
          0                 1           2             4    3     1       0.8648867592E-02       2   13    1         0.4549804802E+00      0.1897994550E+01
          0                 2           2             4    7     1      -0.1724508453E-02       4    7    1        -0.9121207131E-01      0.2384675029E+00
          0                 3           2             4    7     1      -0.4509713843E-03       4    7    1        -0.2385911018E-01      0.4309774706E-01
          0                 4           1             4    7     1      -0.1179356306E-03       4    7    1        -0.6238904744E-02      0.1075733324E-01
          0                 5           1             4    7     1      -0.3084218219E-04       4    7    1        -0.1631583704E-02      0.2799876661E-02

    ------------------------------------------------
       NWT REQUIRED            5 OUTER ITERATIONS 
       AND A TOTAL OF          8 INNER ITERATIONS.
    ------------------------------------------------

 NO OUTPUT CONTROL FOR STRESS PERIOD   40   TIME STEP   13
 
 SOLVING FOR HEAD 
                                                   Max.-Head-Change                         Max.-Flux-Residual
  Residual-Control   Outer-Iter.   Inner-Iter.     Column Row Layer    Maximum-Head-Change  Column Row Layer    Maximum-Flux-Residual          L2-NORM 
          0                 1           2             4    3     1       0.8582930805E-02       4    3    1         0.4492111103E+00      0.1856688274E+01
          0                 2           2             4    7     1      -0.1677484435E-02       4    7    1        -0.8872821815E-01      0.2325093205E+00
          0                 3           2             4    7     1      -0.4386539489E-03       4    7    1        -0.2320821285E-01      0.4179378231E-01
          0                 4           1             4    7     1      -0.1147079611E-03       4    7    1        -0.6068420114E-02      0.1042348407E-01
          0                 5           1             4    7     1      -0.2999615583E-04       4    7    1        -0.1586904441E-02      0.2713419103E-02

    ------------------------------------------------
       NWT REQUIRED            5 OUTER ITERATIONS 
       AND A TOTAL OF          8 INNER ITERATIONS.
    ------------------------------------------------

 NO OUTPUT CONTROL FOR STRESS PERIOD   40   TIME STEP   14
 
 SOLVING FOR HEAD 
                                                   Max.-Head-Change                         Max.-Flux-Residual
  Residual-Control   Outer-Iter.   Inner-Iter.     Column Row Layer    Maximum-Head-Change  Column Row Layer    Maximum-Flux-Residual          L2-NORM 
          0                 1           2             4    3     1       0.8518332895E-02       4    3    1         0.4457923641E+00      0.1819185751E+01
          0                 2           2             4    7     1      -0.1631684662E-02       4    7    1        -0.8630997662E-01      0.2269334716E+00
          0                 3           2             4    7     1      -0.4266512597E-03       4    7    1        -0.2257416559E-01      0.4053591258E-01
          0                 4           1             4    7     1      -0.1115614739E-03       4    7    1        -0.5902270228E-02      0.1009986108E-01
          0                 5           1             4    7     1      -0.2917112928E-04       4    7    1        -0.1543344257E-02      0.2629526130E-02

    ------------------------------------------------
       NWT REQUIRED            5 OUTER ITERATIONS 
       AND A TOTAL OF          8 INNER ITERATIONS.
    ------------------------------------------------

 NO OUTPUT CONTROL FOR STRESS PERIOD   40   TIME STEP   15
 
 SOLVING FOR HEAD 
                                                   Max.-Head-Change                         Max.-Flux-Residual
  Residual-Control   Outer-Iter.   Inner-Iter.     Column Row Layer    Maximum-Head-Change  Column Row Layer    Maximum-Flux-Residual          L2-NORM 
          0                 1           2             4    3     1       0.8455017511E-02       4    3    1         0.4424430371E+00      0.1785020168E+01
          0                 2           2             4    7     1      -0.1587054758E-02       4    7    1        -0.8395412055E-01      0.2217060293E+00
          0                 3           2             4    7     1      -0.4149512397E-03       4    7    1        -0.2195625086E-01      0.3932263024E-01
          0                 4           1             4    7     1      -0.1084935103E-03       4    7    1        -0.5740295920E-02      0.9786226308E-02
          0                 5           1             4    7     1      -0.2836652306E-04       4    7    1        -0.1500868245E-02      0.2548167785E-02

    ------------------------------------------------
       NWT REQUIRED            5 OUTER ITERATIONS 
       AND A TOTAL OF          8 INNER ITERATIONS.
    ------------------------------------------------

 NO OUTPUT CONTROL FOR STRESS PERIOD   40   TIME STEP   16
 
 SOLVING FOR HEAD 
                                                   Max.-Head-Change                         Max.-Flux-Residual
  Residual-Control   Outer-Iter.   Inner-Iter.     Column Row Layer    Maximum-Head-Change  Column Row Layer    Maximum-Flux-Residual          L2-NORM 
          0                 1           2             4    3     1       0.8392714667E-02       4    3    1         0.4391481163E+00      0.1753777044E+01
          0                 2           2             4    7     1      -0.1543542491E-02       4    7    1        -0.8165779022E-01      0.2167917607E+00
          0                 3           2             4    7     1      -0.4035409100E-03       4    7    1        -0.2135375621E-01      0.3815181209E-01
          0                 4           1             4    7     1      -0.1055008248E-03       4    7    1        -0.5582320155E-02      0.9482192871E-02
          0                 5           1             4    7     1      -0.2758152054E-04       4    7    1        -0.1459432015E-02      0.2469217704E-02

    ------------------------------------------------
       NWT REQUIRED            5 OUTER ITERATIONS 
       AND A TOTAL OF          8 INNER ITERATIONS.
    ------------------------------------------------

 NO OUTPUT CONTROL FOR STRESS PERIOD   40   TIME STEP   17
 
 SOLVING FOR HEAD 
                                                   Max.-Head-Change                         Max.-Flux-Residual
  Residual-Control   Outer-Iter.   Inner-Iter.     Column Row Layer    Maximum-Head-Change  Column Row Layer    Maximum-Flux-Residual          L2-NORM 
          0                 1           2             4    3     1       0.8331385106E-02       4    3    1         0.4359056918E+00      0.1725107922E+01
          0                 2           2             4    7     1      -0.1501166870E-02       4    7    1        -0.7942201668E-01      0.2121655923E+00
          0                 3           2             4    7     1      -0.3924249328E-03       4    7    1        -0.2076694166E-01      0.3701971168E-01
          0                 4           1             4    7     1      -0.1025845353E-03       4    7    1        -0.5428406591E-02      0.9187025988E-02
          0                 5           1             4    7     1      -0.2681638408E-04       4    7    1        -0.1419071112E-02      0.2392543686E-02

    ------------------------------------------------
       NWT REQUIRED            5 OUTER ITERATIONS 
       AND A TOTAL OF          8 INNER ITERATIONS.
    ------------------------------------------------

 NO OUTPUT CONTROL FOR STRESS PERIOD   40   TIME STEP   18
 
 SOLVING FOR HEAD 
                                                   Max.-Head-Change                         Max.-Flux-Residual
  Residual-Control   Outer-Iter.   Inner-Iter.     Column Row Layer    Maximum-Head-Change  Column Row Layer    Maximum-Flux-Residual          L2-NORM 
          0                 1           2             4    3     1       0.8271221372E-02       4    3    1         0.4327258230E+00      0.1698698978E+01
          0                 2           2             4    7     1      -0.1459747897E-02       4    7    1        -0.7723683827E-01      0.2077960800E+00
          0                 3           2             4    7     1      -0.3815590946E-03       4    7    1        -0.2019336120E-01      0.3592511965E-01
          0                 4           1             4    7     1      -0.9973377041E-04       4    7    1        -0.5277954731E-02      0.8900479443E-02

    ------------------------------------------------
       NWT REQUIRED            4 OUTER ITERATIONS 
       AND A TOTAL OF          7 INNER ITERATIONS.
    ------------------------------------------------

 NO OUTPUT CONTROL FOR STRESS PERIOD   40   TIME STEP   19
 
 SOLVING FOR HEAD 
                                                   Max.-Head-Change                         Max.-Flux-Residual
  Residual-Control   Outer-Iter.   Inner-Iter.     Column Row Layer    Maximum-Head-Change  Column Row Layer    Maximum-Flux-Residual          L2-NORM 
          0                 1           2             4    3     1       0.8212185495E-02       4    3    1         0.4296064192E+00      0.1674301142E+01
          0                 2           2             4    7     1      -0.1419537211E-02       4    7    1        -0.7511581296E-01      0.2036709204E+00
          0                 3           2             4    7     1      -0.3710075102E-03       4    7    1        -0.1963647134E-01      0.3486951106E-01
          0                 4           1             4    7     1      -0.9696486108E-04       4    7    1        -0.5131844023E-02      0.8623234595E-02

    ------------------------------------------------
       NWT REQUIRED            4 OUTER ITERATIONS 
       AND A TOTAL OF          7 INNER ITERATIONS.
    ------------------------------------------------

 NO OUTPUT CONTROL FOR STRESS PERIOD   40   TIME STEP   20
 
 SOLVING FOR HEAD 
                                                   Max.-Head-Change                         Max.-Flux-Residual
  Residual-Control   Outer-Iter.   Inner-Iter.     Column Row Layer    Maximum-Head-Change  Column Row Layer    Maximum-Flux-Residual          L2-NORM 
          0                 1           2             4    3     1       0.8154014627E-02       4    3    1         0.4265333841E+00      0.1651655279E+01
          0                 2           2             4    7     1      -0.1380265601E-02       4    7    1        -0.7304453164E-01      0.1997585833E+00
          0                 3           2             4    7     1      -0.3607009934E-03       4    7    1        -0.1909256514E-01      0.3384628716E-01
          0                 4           1             4    7     1      -0.9426000369E-04       4    7    1        -0.4989121944E-02      0.8353418690E-02

    ------------------------------------------------
       NWT REQUIRED            4 OUTER ITERATIONS 
       AND A TOTAL OF          7 INNER ITERATIONS.
    ------------------------------------------------

 NO OUTPUT CONTROL FOR STRESS PERIOD   40   TIME STEP   21
 
 SOLVING FOR HEAD 
                                                   Max.-Head-Change                         Max.-Flux-Residual
  Residual-Control   Outer-Iter.   Inner-Iter.     Column Row Layer    Maximum-Head-Change  Column Row Layer    Maximum-Flux-Residual          L2-NORM 
          0                 1           2             4    3     1       0.8096906565E-02       4    3    1         0.4235172906E+00      0.1630576702E+01
          0                 2           2             4    7     1      -0.1341909526E-02       4    7    1        -0.7102147898E-01      0.1960480853E+00
          0                 3           2             4    7     1      -0.3506350493E-03       4    7    1        -0.1856134354E-01      0.3285666037E-01
          0                 4           1             4    7     1      -0.9161842039E-04       4    7    1        -0.4849732473E-02      0.8091535228E-02

    ------------------------------------------------
       NWT REQUIRED            4 OUTER ITERATIONS 
       AND A TOTAL OF          7 INNER ITERATIONS.
    ------------------------------------------------

 NO OUTPUT CONTROL FOR STRESS PERIOD   40   TIME STEP   22
 
 SOLVING FOR HEAD 
                                                   Max.-Head-Change                         Max.-Flux-Residual
  Residual-Control   Outer-Iter.   Inner-Iter.     Column Row Layer    Maximum-Head-Change  Column Row Layer    Maximum-Flux-Residual          L2-NORM 
          0                 1           2             4    3     1       0.8040597775E-02       4    3    1         0.4205442097E+00      0.1610862858E+01
          0                 2           2             4    7     1      -0.1304500334E-02       4    7    1        -0.6904863663E-01      0.1925175471E+00
          0                 3           2             4    7     1      -0.3408157556E-03       4    7    1        -0.1804320805E-01      0.3189712882E-01
          0                 4           1             4    7     1      -0.8904117040E-04       4    7    1        -0.4713751675E-02      0.7836700860E-02

    ------------------------------------------------
       NWT REQUIRED            4 OUTER ITERATIONS 
       AND A TOTAL OF          7 INNER ITERATIONS.
    ------------------------------------------------

 NO OUTPUT CONTROL FOR STRESS PERIOD   40   TIME STEP   23
 
 SOLVING FOR HEAD 
                                                   Max.-Head-Change                         Max.-Flux-Residual
  Residual-Control   Outer-Iter.   Inner-Iter.     Column Row Layer    Maximum-Head-Change  Column Row Layer    Maximum-Flux-Residual          L2-NORM 
          0                 1           2             4    3     1       0.7985292585E-02       4    3    1         0.4176246626E+00      0.1592391656E+01
          0                 2           2             4    7     1      -0.1267939961E-02       4    7    1        -0.6712057777E-01      0.1891558960E+00
          0                 3           2             4    7     1      -0.3312191069E-03       4    7    1        -0.1753682630E-01      0.3096676375E-01
          0                 4           1             4    7     1      -0.8652237212E-04       4    7    1        -0.4580853678E-02      0.7588783853E-02

    ------------------------------------------------
       NWT REQUIRED            4 OUTER ITERATIONS 
       AND A TOTAL OF          7 INNER ITERATIONS.
    ------------------------------------------------

 NO OUTPUT CONTROL FOR STRESS PERIOD   40   TIME STEP   24
 
 SOLVING FOR HEAD 
                                                   Max.-Head-Change                         Max.-Flux-Residual
  Residual-Control   Outer-Iter.   Inner-Iter.     Column Row Layer    Maximum-Head-Change  Column Row Layer    Maximum-Flux-Residual          L2-NORM 
          0                 1           2             4    3     1       0.7930735375E-02       4    3    1         0.4147450578E+00      0.1575014033E+01
          0                 2           2             4    7     1      -0.1232277849E-02       4    7    1        -0.6523982812E-01      0.1859533614E+00
          0                 3           2             4    7     1      -0.3218584137E-03       4    7    1        -0.1704289063E-01      0.3006606896E-01
          0                 4           1             4    7     1      -0.8406558061E-04       4    7    1        -0.4451223800E-02      0.7347922223E-02

    ------------------------------------------------
       NWT REQUIRED            4 OUTER ITERATIONS 
       AND A TOTAL OF          7 INNER ITERATIONS.
    ------------------------------------------------

 NO OUTPUT CONTROL FOR STRESS PERIOD   40   TIME STEP   25
 
 SOLVING FOR HEAD 
                                                   Max.-Head-Change                         Max.-Flux-Residual
  Residual-Control   Outer-Iter.   Inner-Iter.     Column Row Layer    Maximum-Head-Change  Column Row Layer    Maximum-Flux-Residual          L2-NORM 
          0                 1           2             4    3     1       0.7877126689E-02       4    3    1         0.4119163278E+00      0.1558617888E+01
          0                 2           2             4    7     1      -0.1197412301E-02       4    7    1        -0.6340110168E-01      0.1828954333E+00
          0                 3           2             4    7     1      -0.3127066685E-03       4    7    1        -0.1655998546E-01      0.2919185992E-01
          0                 4           1             4    7     1      -0.8166363970E-04       4    7    1        -0.4324487064E-02      0.7113383032E-02

    ------------------------------------------------
       NWT REQUIRED            4 OUTER ITERATIONS 
       AND A TOTAL OF          7 INNER ITERATIONS.
    ------------------------------------------------

 NO OUTPUT CONTROL FOR STRESS PERIOD   40   TIME STEP   26
 
 SOLVING FOR HEAD 
                                                   Max.-Head-Change                         Max.-Flux-Residual
  Residual-Control   Outer-Iter.   Inner-Iter.     Column Row Layer    Maximum-Head-Change  Column Row Layer    Maximum-Flux-Residual          L2-NORM 
          0                 1           2             4    3     1       0.7824439107E-02       4    3    1         0.4091367778E+00      0.1543107088E+01
          0                 2           2             4    7     1      -0.1163319060E-02       4    7    1        -0.6160309682E-01      0.1799725448E+00
          0                 3           2             4    7     1      -0.3037575561E-03       4    7    1        -0.1608777681E-01      0.2834311835E-01
          0                 4           1             4    7     1      -0.7931489692E-04       4    7    1        -0.4200556129E-02      0.6884849566E-02

    ------------------------------------------------
       NWT REQUIRED            4 OUTER ITERATIONS 
       AND A TOTAL OF          7 INNER ITERATIONS.
    ------------------------------------------------

 NO OUTPUT CONTROL FOR STRESS PERIOD   40   TIME STEP   27
 
 SOLVING FOR HEAD 
                                                   Max.-Head-Change                         Max.-Flux-Residual
  Residual-Control   Outer-Iter.   Inner-Iter.     Column Row Layer    Maximum-Head-Change  Column Row Layer    Maximum-Flux-Residual          L2-NORM 
          0                 1           2             4    3     1       0.7772424142E-02       4    3    1         0.4063928920E+00      0.1528397834E+01
          0                 2           2             4    7     1      -0.1130124375E-02       4    7    1        -0.5985245755E-01      0.1771817184E+00
          0                 3           2             4    7     1      -0.2950443739E-03       4    7    1        -0.1562801517E-01      0.2752185686E-01
          0                 4           1             4    7     1      -0.7702811539E-04       4    7    1        -0.4079892718E-02      0.6663003888E-02

    ------------------------------------------------
       NWT REQUIRED            4 OUTER ITERATIONS 
       AND A TOTAL OF          7 INNER ITERATIONS.
    ------------------------------------------------

 NO OUTPUT CONTROL FOR STRESS PERIOD   40   TIME STEP   28
 
 SOLVING FOR HEAD 
                                                   Max.-Head-Change                         Max.-Flux-Residual
  Residual-Control   Outer-Iter.   Inner-Iter.     Column Row Layer    Maximum-Head-Change  Column Row Layer    Maximum-Flux-Residual          L2-NORM 
          0                 1           2             4    3     1       0.7721288028E-02       4    3    1         0.4036959743E+00      0.1521875492E+01
          0                 2           2             4    7     1      -0.1106796932E-02       4    7    1        -0.5844746904E-01      0.1781368608E+00
          0                 3           2             4    7     1      -0.2898999952E-03       4    7    1        -0.1532239563E-01      0.2803257328E-01
          0                 4           1             4    7     1      -0.7586106375E-04       4    7    1        -0.4012068008E-02      0.6743044066E-02

    ------------------------------------------------
       NWT REQUIRED            4 OUTER ITERATIONS 
       AND A TOTAL OF          7 INNER ITERATIONS.
    ------------------------------------------------

 NO OUTPUT CONTROL FOR STRESS PERIOD   40   TIME STEP   29
 
 SOLVING FOR HEAD 
                                                   Max.-Head-Change                         Max.-Flux-Residual
  Residual-Control   Outer-Iter.   Inner-Iter.     Column Row Layer    Maximum-Head-Change  Column Row Layer    Maximum-Flux-Residual          L2-NORM 
          0                 1           2             4    3     1       0.7671005001E-02       4    3    1         0.4010446240E+00      0.1521565186E+01
          0                 2           2             4    8     1      -0.1324969081E-02       4    8    1        -0.7073873641E-01      0.1823667681E+00
          0                 3           2             4    8     1      -0.3274760680E-03       4    8    1        -0.1749192760E-01      0.2991288791E-01
          0                 4           1             4    8     1      -0.8104881624E-04       4    8    1        -0.4323261004E-02      0.7219793581E-02

    ------------------------------------------------
       NWT REQUIRED            4 OUTER ITERATIONS 
       AND A TOTAL OF          7 INNER ITERATIONS.
    ------------------------------------------------

 NO OUTPUT CONTROL FOR STRESS PERIOD   40   TIME STEP   30



 STREAM LISTING     PERIOD     40   STEP       30

 LAYER ROW COL. STREAM  RCH.  FLOW INTO     FLOW TO   FLOW OUT OF   OVRLND.     DIRECT     STREAM       STREAM     STREAM     STREAM   STREAMBED  STREAMBED
                SEG.NO.  NO.  STRM. RCH.    AQUIFER    STRM. RCH.    RUNOFF     PRECIP       ET          HEAD       DEPTH      WIDTH   CONDCTNC.   GRADIENT

   1    1    1     1     1    7.3498E+01  4.1744E-01   7.3080E+01  0.000E+00  0.000E+00  0.000E+00  1.09473E+03  1.681E+00  1.982E+01  8.917E-02  1.560E+00
   1    2    2     1     2    7.3080E+01  6.4665E-01   7.2434E+01  0.000E+00  0.000E+00  0.000E+00  1.08973E+03  1.675E+00  1.976E+01  1.383E-01  1.558E+00
   1    3    3     1     3    7.2434E+01  5.5165E-01   7.1882E+01  0.000E+00  0.000E+00  0.000E+00  1.08409E+03  1.669E+00  1.969E+01  1.182E-01  1.556E+00
   1    3    4     1     4    7.1882E+01  5.0813E-01   7.1374E+01  0.000E+00  0.000E+00  0.000E+00  1.07907E+03  1.663E+00  1.963E+01  1.090E-01  1.554E+00
   1    4    5     2     1    6.9374E+01  4.0746E-01   6.8966E+01  0.000E+00  0.000E+00  0.000E+00  1.07416E+03  2.224E+00  1.200E+01  7.800E-02  1.741E+00
   1    5    6     2     2    6.8966E+01  3.1301E-01   6.8653E+01  0.000E+00  0.000E+00  0.000E+00  1.06873E+03  2.217E+00  1.200E+01  6.000E-02  1.739E+00
   1    6    6     2     3    6.8653E+01  3.1265E-01   6.8341E+01  0.000E+00  0.000E+00  0.000E+00  1.06400E+03  2.211E+00  1.200E+01  6.000E-02  1.737E+00
   1    7    6     2     4    6.8341E+01  3.1228E-01   6.8028E+01  0.000E+00  0.000E+00  0.000E+00  1.05928E+03  2.205E+00  1.200E+01  6.000E-02  1.735E+00
   1    8    6     2     5    6.8028E+01  3.1192E-01   6.7717E+01  0.000E+00  0.000E+00  0.000E+00  1.05456E+03  2.199E+00  1.200E+01  6.000E-02  1.733E+00
   1    3    5     3     1    2.0000E+00  2.8252E-01   1.7175E+00  0.000E+00  0.000E+00  0.000E+00  1.07555E+03  1.909E+00  9.636E+00  7.227E-02  1.955E+00
   1    3    6     3     2    1.7175E+00  2.4905E-01   1.4684E+00  0.000E+00  0.000E+00  0.000E+00  1.07264E+03  1.727E+00  8.909E+00  6.682E-02  1.864E+00
   1    3    7     3     3    1.4684E+00  1.9718E-01   1.2712E+00  0.000E+00  0.000E+00  0.000E+00  1.06987E+03  1.555E+00  8.218E+00  5.547E-02  1.777E+00
   1    4    8     3     4    1.2712E+00  2.2567E-01   1.0456E+00  0.000E+00  0.000E+00  0.000E+00  1.06682E+03  1.364E+00  7.455E+00  6.709E-02  1.682E+00
   1    5    8     3     5    1.0456E+00  1.5790E-01   8.8768E-01  0.000E+00  0.000E+00  0.000E+00  1.06362E+03  1.164E+00  6.655E+00  4.991E-02  1.582E+00
   1    6    8     3     6    8.8768E-01  5.5980E-02   8.3170E-01  0.000E+00  0.000E+00  0.000E+00  1.06158E+03  1.036E+00  6.145E+00  1.844E-02  1.518E+00
   1    5   10     4     1    1.0000E+01  9.0919E-02   9.9091E+00  0.000E+00  0.000E+00  0.000E+00  1.07836E+03  6.368E-01  1.000E+01  2.500E-02  1.212E+00
   1    5    9     4     2    9.9091E+00  1.8158E-01   9.7275E+00  0.000E+00  0.000E+00  0.000E+00  1.07154E+03  6.315E-01  1.000E+01  5.000E-02  1.211E+00
   1    6    8     4     3    9.7275E+00  1.2689E-01   9.6006E+00  0.000E+00  0.000E+00  0.000E+00  1.06381E+03  6.256E-01  1.000E+01  3.500E-02  1.209E+00
   1    6    8     5     1    1.0432E+01  2.2686E-01   1.0205E+01  0.000E+00  0.000E+00  0.000E+00  1.05868E+03  6.790E-01  1.542E+01  6.166E-02  1.226E+00
   1    7    7     5     2    1.0205E+01  2.7894E-01   9.9265E+00  0.000E+00  0.000E+00  0.000E+00  1.05417E+03  6.732E-01  1.519E+01  7.594E-02  1.224E+00
   1    8    7     5     3    9.9265E+00  1.9221E-01   9.7343E+00  0.000E+00  0.000E+00  0.000E+00  1.04992E+03  6.676E-01  1.497E+01  5.241E-02  1.223E+00
   1    8    6     5     4    9.7343E+00  1.3577E-01   9.5985E+00  0.000E+00  0.000E+00  0.000E+00  1.04691E+03  6.637E-01  1.482E+01  3.706E-02  1.221E+00
   1    9    6     6     1    7.7315E+01  3.2406E-01   7.6991E+01  0.000E+00  0.000E+00  0.000E+00  1.04513E+03  2.401E+00  1.200E+01  6.000E-02  1.800E+00
   1   10    7     6     2    7.6991E+01  3.2369E-01   7.6667E+01  0.000E+00  0.000E+00  0.000E+00  1.04058E+03  2.395E+00  1.200E+01  6.000E-02  1.798E+00
   1   11    7     6     3    7.6667E+01  3.2333E-01   7.6344E+01  0.000E+00  0.000E+00  0.000E+00  1.03603E+03  2.389E+00  1.200E+01  6.000E-02  1.796E+00
   1   12    7     6     4    7.6344E+01  3.2297E-01   7.6021E+01  0.000E+00  0.000E+00  0.000E+00  1.03147E+03  2.383E+00  1.200E+01  6.000E-02  1.794E+00
   1   13    7     6     5    7.6021E+01  3.6722E-02   7.5984E+01  0.000E+00  0.000E+00  0.000E+00  1.02829E+03  2.379E+00  1.200E+01  2.400E-02  5.100E-01
   1   14    9     7     1    1.5000E+02  1.3736E+00   1.4863E+02  0.000E+00  0.000E+00  0.000E+00  1.03987E+03  2.288E+00  5.529E+01  5.593E-01  8.187E-01
   1   13    8     7     2    1.4863E+02  1.9486E+00   1.4668E+02  0.000E+00  0.000E+00  0.000E+00  1.03478E+03  2.279E+00  5.525E+01  6.147E-01  1.057E+00
   1   13    7     7     3    1.4668E+02  1.6362E+00   1.4504E+02  0.000E+00  0.000E+00  0.000E+00  1.02969E+03  2.269E+00  5.521E+01  5.584E-01  9.767E-01
   1   13    6     8     1    2.2103E+02  1.2961E+00   2.1973E+02  0.000E+00  0.000E+00  0.000E+00  1.02513E+03  3.254E+00  4.718E+01  4.808E-01  8.986E-01
   1   13    5     8     2    2.1973E+02  4.3964E-01   2.1929E+02  0.000E+00  0.000E+00  0.000E+00  1.01887E+03  3.249E+00  4.711E+01  4.801E-01  3.052E-01
   1   13    4     8     3    2.1929E+02 -1.7373E+00   2.2103E+02  0.000E+00  0.000E+00  0.000E+00  1.01263E+03  3.253E+00  4.717E+01  4.806E+00 -1.205E-01
   1   13    3     8     4    2.2103E+02 -3.2462E+00   2.2427E+02  0.000E+00  0.000E+00  0.000E+00  1.00639E+03  3.267E+00  4.736E+01  4.827E+00 -2.242E-01
   1   13    2     8     5    2.2427E+02 -2.3460E+00   2.2662E+02  0.000E+00  0.000E+00  0.000E+00  1.00016E+03  3.282E+00  4.759E+01  4.849E+00 -1.613E-01
   1   13    1     8     6    2.2662E+02 -1.7970E+00   2.2842E+02  0.000E+00  0.000E+00  0.000E+00  9.95168E+02  3.293E+00  4.775E+01  2.920E+00 -2.052E-01
   1    8    6     9     1    0.0000E+00  0.0000E+00   0.0000E+00  0.000E+00  0.000E+00  0.000E+00  1.07875E+03  0.000E+00  4.000E+00  0.000E+00  1.000E+00
   1    8    5     9     2    0.0000E+00  0.0000E+00   0.0000E+00  0.000E+00  0.000E+00  0.000E+00  1.07825E+03  0.000E+00  4.000E+00  0.000E+00  1.000E+00





UNSATURATED ZONE PACKAGE VOLUMETRIC BUDGET FOR  TIME STEP    30 STRESS PERIOD   40
  ------------------------------------------------------------------------------



     CUMULATIVE VOLUMES      L**3       RATES FOR THIS TIME STEP      L**3/T
     ------------------                 ------------------------

           IN:                                      IN:
           ---                                      ---
        INFILTRATION =  9766223653.3824          INFILTRATION =           0.8475

          OUT:                                     OUT:
          ----                                     ----
              UZF ET =  1292124933.9287                UZF ET =           0.7500
        UZF RECHARGE =  8093524173.6186          UZF RECHARGE =           3.4520

            IN - OUT =   380574545.8352              IN - OUT =          -3.3545

          STORAGE:                                 STORAGE:
          --------                                 --------
      STORAGE CHANGE =   381887332.8836        STORAGE CHANGE =          -3.3545

 PERCENT DISCREPANCY IS DIFFERENCE BETWEEN IN-OUT MINUS CHANGE IN STORAGE
 DIVIDED BY THE AVERAGE OF IN AND OUT TIMES 100

 PERCENT DISCREPANCY =          -0.00     PERCENT DISCREPANCY =           0.00






1
  VOLUMETRIC BUDGET FOR AGRICULTURAL FIELDS AT  END OF TIME STEP   30, STRESS PERIOD  40
  ------------------------------------------------------------------------------

     CUMULATIVE VOLUMES      L**3       RATES FOR THIS TIME STEP      L**3/T
     ------------------                 ------------------------

           IN:                                      IN:
           ---                                      ---
               AG WELLS  =  8726962176.0000                 AG WELLS  =           0.0000
      DIVERSION SEGMENTS =   952273088.0000        DIVERSION SEGMENTS =           0.0000
       IRRIGATION PONDS  =           0.0000         IRRIGATION PONDS  =           0.0000
           GW IRRIGATION =           0.0000             GW IRRIGATION =           0.0000
           SW IRRIGATION =           0.0000             SW IRRIGATION =           0.0000
        SYSTEM LOSSES GW =           0.0000          SYSTEM LOSSES GW =           0.0000
        SYSTEM LOSSES SW =           0.0000          SYSTEM LOSSES SW =           0.0000

                TOTAL IN =  9679235072.0000                  TOTAL IN =           0.0000

          OUT:                                     OUT:
          ----                                     ----
               AG WELLS  =           0.0000                 AG WELLS  =           0.0000
      DIVERSION SEGMENTS =           0.0000        DIVERSION SEGMENTS =           0.0000
       IRRIGATION PONDS  =           0.0000         IRRIGATION PONDS  =           0.0000
           GW IRRIGATION =  8726962176.0000             GW IRRIGATION =           0.0000
           SW IRRIGATION =   952291008.0000             SW IRRIGATION =           0.0000
        SYSTEM LOSSES GW =           0.0000          SYSTEM LOSSES GW =           0.0000
        SYSTEM LOSSES SW =           0.0000          SYSTEM LOSSES SW =           0.0000

               TOTAL OUT =  9679253504.0000                 TOTAL OUT =           0.0000

                IN - OUT =      -18432.0000                  IN - OUT =           0.0000

     PERCENT DISCREPANCY =          -0.00         PERCENT DISCREPANCY =           0.00



1
  VOLUMETRIC BUDGET FOR ENTIRE MODEL AT END OF TIME STEP   30, STRESS PERIOD  40
  ------------------------------------------------------------------------------

     CUMULATIVE VOLUMES      L**3       RATES FOR THIS TIME STEP      L**3/T
     ------------------                 ------------------------

           IN:                                      IN:
           ---                                      ---
             STORAGE     =  7161974272.0000               STORAGE     =           1.9501
       CONSTANT HEAD     =           0.0000         CONSTANT HEAD     =           0.0000
     HEAD DEP BOUNDS     =    29434682.0000       HEAD DEP BOUNDS     =           0.2883
      STREAM LEAKAGE     =  1266809344.0000        STREAM LEAKAGE     =          14.2077
        UZF RECHARGE     =  8093522432.0000          UZF RECHARGE     =           3.4520
               GW ET     =           0.0000                 GW ET     =           0.0000
     SURFACE LEAKAGE     =           0.0000       SURFACE LEAKAGE     =           0.0000
           AG WELLS      =           0.0000             AG WELLS      =           0.0000

                TOTAL IN = 16551741440.0000                  TOTAL IN =          19.8981

          OUT:                                     OUT:
          ----                                     ----
             STORAGE     =  6748871680.0000               STORAGE     =          10.4791
       CONSTANT HEAD     =           0.0000         CONSTANT HEAD     =           0.0000
     HEAD DEP BOUNDS     =    29813392.0000       HEAD DEP BOUNDS     =           0.2958
      STREAM LEAKAGE     =  1044598336.0000        STREAM LEAKAGE     =           9.1265
        UZF RECHARGE     =           0.0000          UZF RECHARGE     =           0.0000
               GW ET     =     1410367.8750                 GW ET     =       9.6133E-04
     SURFACE LEAKAGE     =           0.0000       SURFACE LEAKAGE     =           0.0000
           AG WELLS      =  8726962176.0000             AG WELLS      =           0.0000

               TOTAL OUT = 16551655424.0000                 TOTAL OUT =          19.9023

                IN - OUT =       86016.0000                  IN - OUT =      -4.1733E-03

     PERCENT DISCREPANCY =           0.00         PERCENT DISCREPANCY =          -0.02






         TIME SUMMARY AT END OF TIME STEP   30 IN STRESS PERIOD   40
                    SECONDS     MINUTES      HOURS       DAYS        YEARS
                    -----------------------------------------------------------
   TIME STEP LENGTH  87667.      1461.1      24.352      1.0147     2.77799E-03
 STRESS PERIOD TIME 2.63000E+06  43833.      730.56      30.440     8.33397E-02
         TOTAL TIME 1.02656E+08 1.71093E+06  28515.      1188.1      3.2530    
1
1
                            STRESS PERIOD NO.   41, LENGTH =   2630000.    
                            -----------------------------------------------

                              NUMBER OF TIME STEPS =    30

                               MULTIPLIER FOR DELT =     1.000

                            INITIAL TIME STEP SIZE =   87666.66    

 REUSING NON-PARAMETER GHB CELLS FROM LAST STRESS PERIOD

      2 GHB CELLS

 REUSING STREAM SEGMENT DATA FROM LAST STRESS PERIOD



            AREAL INFILTRATION RATE
 READING ON UNIT   19 WITH FORMAT: (FREE)              

            1           2           3           4           5           6           7           8           9          10
 ........................................................................................................................
   1   1.0000E-10  2.0000E-10   0.000       0.000       0.000       0.000       0.000       0.000       0.000       0.000    
   2   2.0000E-10  1.0000E-10  2.0000E-10   0.000       0.000      8.0000E-10  8.0000E-10  5.0000E-10   0.000       0.000    
   3    0.000      5.0000E-10  1.0000E-10  1.0000E-10  8.0000E-10  8.0000E-10  5.0000E-10  5.0000E-10   0.000       0.000    
   4   8.0000E-10  5.0000E-10  1.0000E-10  1.0000E-10  1.0000E-10  1.0000E-10  1.0000E-10  1.0000E-10  2.0000E-10   0.000    
   5   8.0000E-10  5.0000E-10  1.0000E-10  1.0000E-10  1.0000E-10  1.0000E-10  1.0000E-10  1.0000E-10  1.0000E-10  1.0000E-10
   6   8.0000E-10  5.0000E-10  5.0000E-10  2.0000E-10  2.0000E-10  1.0000E-10  1.0000E-10  1.0000E-10  1.0000E-10  5.0000E-10
   7   8.0000E-10  5.0000E-10  5.0000E-10  2.0000E-10  2.0000E-10  1.0000E-10  1.0000E-10  2.0000E-10  2.0000E-10   0.000    
   8    0.000      5.0000E-10  5.0000E-10  2.0000E-10  2.0000E-10  1.0000E-10  1.0000E-10  2.0000E-10  5.0000E-10   0.000    
   9    0.000      5.0000E-10  5.0000E-10  2.0000E-10  2.0000E-10  1.0000E-10  1.0000E-10  2.0000E-10  5.0000E-10   0.000    
  10    0.000      5.0000E-10  5.0000E-10  2.0000E-10  2.0000E-10  1.0000E-10  1.0000E-10  2.0000E-10  5.0000E-10  8.0000E-10
  11    0.000      1.0000E-10  1.0000E-10  1.0000E-10  1.0000E-10  1.0000E-10  1.0000E-10  2.0000E-10  5.0000E-10   0.000    
  12   1.0000E-10  1.0000E-10  1.0000E-10  1.0000E-10  1.0000E-10  1.0000E-10  1.0000E-10  1.0000E-10  2.0000E-10   0.000    
  13   1.0000E-10  1.0000E-10  2.0000E-10  2.0000E-10  2.0000E-10  2.0000E-10  2.0000E-10  1.0000E-10  1.0000E-10   0.000    
  14    0.000      2.0000E-10  5.0000E-10  5.0000E-10  5.0000E-10  5.0000E-10  5.0000E-10  2.0000E-10  1.0000E-10   0.000    
  15    0.000       0.000      8.0000E-10  8.0000E-10  8.0000E-10  8.0000E-10   0.000       0.000       0.000       0.000    

                  ET RATE =  2.500000E-08

 USING ET EXTINCTION DEPTH FROM PREVIOUS STRESS PERIOD. CURRENT PERIOD IS:      41

 USING EXTINCTION WATER CONTENT FROM PREVIOUS STRESS PERIOD. CURRENT PERIOD IS:      41

 USING AIR ENTRY PRESSURE FROM PREVIOUS STRESS PERIOD. CURRENT PERIOD IS:      41

 USING ROOT PRESSURE HEAD FROM PREVIOUS STRESS PERIOD. CURRENT PERIOD IS:      41

 USING ROOT ACTIVITY FROM PREVIOUS STRESS PERIOD. CURRENT PERIOD IS:      41

 PROCESSING AG STRESS PERIOD DATA

 READING AG STRESS PERIOD DATA

 READING IRRIGATION SEGMENT

 READING IRRIGATION WELL

 READING SUPPLEMENTAL WELL

 NO IRRPOND OR REUSING IRRPOND DATA FROM LAST STRESS PERIOD

 END PROCESSING AG STRESS PERIOD DATA OPTIONS
 
 SOLVING FOR HEAD 
                                                   Max.-Head-Change                         Max.-Flux-Residual
  Residual-Control   Outer-Iter.   Inner-Iter.     Column Row Layer    Maximum-Head-Change  Column Row Layer    Maximum-Flux-Residual          L2-NORM 
          0                 1           2             4    3     1       0.7621327042E-02       4    3    1         0.3984254107E+00      0.1504482811E+01
          0                 2           2             4    8     1      -0.1267123708E-02       4    8    1        -0.6762438027E-01      0.1791214135E+00
          0                 3           2             4    8     1      -0.3133492798E-03       4    8    1        -0.1673087879E-01      0.2900643233E-01
          0                 4           1             4    8     1      -0.7759429626E-04       4    8    1        -0.4137410565E-02      0.6983789230E-02

    ------------------------------------------------
       NWT REQUIRED            4 OUTER ITERATIONS 
       AND A TOTAL OF          7 INNER ITERATIONS.
    ------------------------------------------------

 NO OUTPUT CONTROL FOR STRESS PERIOD   41   TIME STEP    1
 
 SOLVING FOR HEAD 
                                                   Max.-Head-Change                         Max.-Flux-Residual
  Residual-Control   Outer-Iter.   Inner-Iter.     Column Row Layer    Maximum-Head-Change  Column Row Layer    Maximum-Flux-Residual          L2-NORM 
          0                 1           2             4    3     1       0.7572237140E-02       4    3    1         0.3958375688E+00      0.1491222356E+01
          0                 2           2             4    8     1      -0.1212403697E-02       4    8    1        -0.6468020427E-01      0.1762458451E+00
          0                 3           2             4    8     1      -0.2999719779E-03       4    8    1        -0.1601075089E-01      0.2813778718E-01
          0                 4           1             4    8     1      -0.7431966591E-04       4    8    1        -0.3961366416E-02      0.6755265756E-02

    ------------------------------------------------
       NWT REQUIRED            4 OUTER ITERATIONS 
       AND A TOTAL OF          7 INNER ITERATIONS.
    ------------------------------------------------

 NO OUTPUT CONTROL FOR STRESS PERIOD   41   TIME STEP    2
 
 SOLVING FOR HEAD 
                                                   Max.-Head-Change                         Max.-Flux-Residual
  Residual-Control   Outer-Iter.   Inner-Iter.     Column Row Layer    Maximum-Head-Change  Column Row Layer    Maximum-Flux-Residual          L2-NORM 
          0                 1           2             4    3     1       0.7524177767E-02       4    3    1         0.3933044070E+00      0.1493915779E+01
          0                 2           2             4    8     1      -0.1161524388E-02       4    8    1        -0.6191640585E-01      0.1810217892E+00
          0                 3           2             4    8     1      -0.2877659087E-03       4    8    1        -0.1534378913E-01      0.3005978840E-01
          0                 4           1             4    7     1      -0.7325180380E-04       4    7    1        -0.3851791990E-02      0.7219436640E-02

    ------------------------------------------------
       NWT REQUIRED            4 OUTER ITERATIONS 
       AND A TOTAL OF          7 INNER ITERATIONS.
    ------------------------------------------------

 NO OUTPUT CONTROL FOR STRESS PERIOD   41   TIME STEP    3
 
 SOLVING FOR HEAD 
                                                   Max.-Head-Change                         Max.-Flux-Residual
  Residual-Control   Outer-Iter.   Inner-Iter.     Column Row Layer    Maximum-Head-Change  Column Row Layer    Maximum-Flux-Residual          L2-NORM 
          0                 1           2             4    3     1       0.7381177195E-02       4    3    1         0.3857669042E+00      0.1472534733E+01
          0                 2           2             4    8     1      -0.1111266847E-02       5    7    1        -0.5957388796E-01      0.1784093131E+00
          0                 3           2             4    8     1      -0.2749557978E-03       4    8    1        -0.1467378026E-01      0.2959672481E-01
          0                 4           1             4    7     1      -0.7246698811E-04       4    7    1        -0.3812074743E-02      0.7104345514E-02

    ------------------------------------------------
       NWT REQUIRED            4 OUTER ITERATIONS 
       AND A TOTAL OF          7 INNER ITERATIONS.
    ------------------------------------------------

 NO OUTPUT CONTROL FOR STRESS PERIOD   41   TIME STEP    4
 
 SOLVING FOR HEAD 
                                                   Max.-Head-Change                         Max.-Flux-Residual
  Residual-Control   Outer-Iter.   Inner-Iter.     Column Row Layer    Maximum-Head-Change  Column Row Layer    Maximum-Flux-Residual          L2-NORM 
          0                 1           2             6    4     1       0.6091918952E-02       6    4    1         0.3192320378E+00      0.1467083316E+01
          0                 2           2             4    8     1      -0.1063650878E-02       4    8    1        -0.5671737147E-01      0.1756332352E+00
          0                 3           2             4    7     1      -0.2707928233E-03       4    7    1        -0.1423289704E-01      0.2867031141E-01
          0                 4           1             4    7     1      -0.7132166311E-04       4    7    1        -0.3755590121E-02      0.6869902365E-02

    ------------------------------------------------
       NWT REQUIRED            4 OUTER ITERATIONS 
       AND A TOTAL OF          7 INNER ITERATIONS.
    ------------------------------------------------

 NO OUTPUT CONTROL FOR STRESS PERIOD   41   TIME STEP    5
 
 SOLVING FOR HEAD 
                                                   Max.-Head-Change                         Max.-Flux-Residual
  Residual-Control   Outer-Iter.   Inner-Iter.     Column Row Layer    Maximum-Head-Change  Column Row Layer    Maximum-Flux-Residual          L2-NORM 
          0                 1           2             6    4     1       0.6038762986E-02       6    4    1         0.3164162496E+00      0.1438258849E+01
          0                 2           2             4    8     1      -0.1019189837E-02       4    8    1        -0.5431125018E-01      0.1714327633E+00
          0                 3           2             4    7     1      -0.2664746279E-03       4    7    1        -0.1402032675E-01      0.2776100881E-01
          0                 4           1             4    7     1      -0.7009466185E-04       4    7    1        -0.3694261495E-02      0.6645853323E-02

    ------------------------------------------------
       NWT REQUIRED            4 OUTER ITERATIONS 
       AND A TOTAL OF          7 INNER ITERATIONS.
    ------------------------------------------------

 NO OUTPUT CONTROL FOR STRESS PERIOD   41   TIME STEP    6
 
 SOLVING FOR HEAD 
                                                   Max.-Head-Change                         Max.-Flux-Residual
  Residual-Control   Outer-Iter.   Inner-Iter.     Column Row Layer    Maximum-Head-Change  Column Row Layer    Maximum-Flux-Residual          L2-NORM 
          0                 1           2             4    3     1       0.6012163684E-02       6    4    1         0.3136481021E+00      0.1412850098E+01
          0                 2           2             4    7     1      -0.9942504572E-03       4    7    1        -0.5225861591E-01      0.1676054140E+00
          0                 3           2             4    7     1      -0.2618378850E-03       4    7    1        -0.1378895237E-01      0.2689676171E-01
          0                 4           1             4    7     1      -0.6879654152E-04       4    7    1        -0.3628721084E-02      0.6430496991E-02

    ------------------------------------------------
       NWT REQUIRED            4 OUTER ITERATIONS 
       AND A TOTAL OF          7 INNER ITERATIONS.
    ------------------------------------------------

 NO OUTPUT CONTROL FOR STRESS PERIOD   41   TIME STEP    7
 
 SOLVING FOR HEAD 
                                                   Max.-Head-Change                         Max.-Flux-Residual
  Residual-Control   Outer-Iter.   Inner-Iter.     Column Row Layer    Maximum-Head-Change  Column Row Layer    Maximum-Flux-Residual          L2-NORM 
          0                 1           2             4    3     1       0.5985765669E-02       4    3    1         0.3122706482E+00      0.1390326700E+01
          0                 2           2             4    7     1      -0.9768769375E-03       4    7    1        -0.5139449820E-01      0.1640991353E+00
          0                 3           2             4    7     1      -0.2569593686E-03       4    7    1        -0.1354310957E-01      0.2607236461E-01
          0                 4           1             4    7     1      -0.6744565876E-04       4    7    1        -0.3560003676E-02      0.6223014509E-02

    ------------------------------------------------
       NWT REQUIRED            4 OUTER ITERATIONS 
       AND A TOTAL OF          7 INNER ITERATIONS.
    ------------------------------------------------

 NO OUTPUT CONTROL FOR STRESS PERIOD   41   TIME STEP    8
 
 SOLVING FOR HEAD 
                                                   Max.-Head-Change                         Max.-Flux-Residual
  Residual-Control   Outer-Iter.   Inner-Iter.     Column Row Layer    Maximum-Head-Change  Column Row Layer    Maximum-Flux-Residual          L2-NORM 
          0                 1           2             4    3     1       0.5959235740E-02       4    3    1         0.3108898458E+00      0.1370229673E+01
          0                 2           2             4    7     1      -0.9585524194E-03       4    7    1        -0.5047352532E-01      0.1608705365E+00
          0                 3           2             4    7     1      -0.2518728208E-03       4    7    1        -0.1328476387E-01      0.2528405645E-01
          0                 4           1             4    7     1      -0.6604972025E-04       4    7    1        -0.3488558034E-02      0.6022656493E-02

    ------------------------------------------------
       NWT REQUIRED            4 OUTER ITERATIONS 
       AND A TOTAL OF          7 INNER ITERATIONS.
    ------------------------------------------------

 NO OUTPUT CONTROL FOR STRESS PERIOD   41   TIME STEP    9
 
 SOLVING FOR HEAD 
                                                   Max.-Head-Change                         Max.-Flux-Residual
  Residual-Control   Outer-Iter.   Inner-Iter.     Column Row Layer    Maximum-Head-Change  Column Row Layer    Maximum-Flux-Residual          L2-NORM 
          0                 1           2             4    3     1       0.5933045036E-02       4    3    1         0.3095263966E+00      0.1353328792E+01
          0                 2           2             4    7     1      -0.9367711583E-03       4    7    1        -0.4935785593E-01      0.1578675001E+00
          0                 3           2             4    7     1      -0.2359529900E-03       4    7    1        -0.1243445593E-01      0.2423558161E-01
          0                 4           1             4    7     1      -0.5942312420E-04       4    7    1        -0.3131768737E-02      0.5666812458E-02

    ------------------------------------------------
       NWT REQUIRED            4 OUTER ITERATIONS 
       AND A TOTAL OF          7 INNER ITERATIONS.
    ------------------------------------------------

 NO OUTPUT CONTROL FOR STRESS PERIOD   41   TIME STEP   10
 
 SOLVING FOR HEAD 
                                                   Max.-Head-Change                         Max.-Flux-Residual
  Residual-Control   Outer-Iter.   Inner-Iter.     Column Row Layer    Maximum-Head-Change  Column Row Layer    Maximum-Flux-Residual          L2-NORM 
          0                 1           2             4    7     1      -0.6149094563E-02       4    7    1        -0.3286780245E+00      0.1363356487E+01
          0                 2           2             4    7     1      -0.1519341561E-02       4    7    1        -0.8115378570E-01      0.1687026018E+00
          0                 3           2             4    7     1      -0.3757423146E-03       4    7    1        -0.2005748386E-01      0.2874689657E-01
          0                 4           1             4    7     1      -0.9300672126E-04       4    7    1        -0.4961568718E-02      0.6859727216E-02

    ------------------------------------------------
       NWT REQUIRED            4 OUTER ITERATIONS 
       AND A TOTAL OF          7 INNER ITERATIONS.
    ------------------------------------------------

 NO OUTPUT CONTROL FOR STRESS PERIOD   41   TIME STEP   11
 
 SOLVING FOR HEAD 
                                                   Max.-Head-Change                         Max.-Flux-Residual
  Residual-Control   Outer-Iter.   Inner-Iter.     Column Row Layer    Maximum-Head-Change  Column Row Layer    Maximum-Flux-Residual          L2-NORM 
          0                 1           2             4    7     1      -0.5903575752E-02       4    7    1        -0.3154338276E+00      0.1347055697E+01
          0                 2           2             4    7     1      -0.1459375645E-02       4    7    1        -0.7792558732E-01      0.1654759482E+00
          0                 3           2             4    7     1      -0.3610806987E-03       4    7    1        -0.1926836677E-01      0.2787652372E-01
          0                 4           1             4    7     1      -0.8941817153E-04       4    7    1        -0.4768612865E-02      0.6638919192E-02

    ------------------------------------------------
       NWT REQUIRED            4 OUTER ITERATIONS 
       AND A TOTAL OF          7 INNER ITERATIONS.
    ------------------------------------------------

 NO OUTPUT CONTROL FOR STRESS PERIOD   41   TIME STEP   12
 
 SOLVING FOR HEAD 
                                                   Max.-Head-Change                         Max.-Flux-Residual
  Residual-Control   Outer-Iter.   Inner-Iter.     Column Row Layer    Maximum-Head-Change  Column Row Layer    Maximum-Flux-Residual          L2-NORM 
          0                 1           2             4    3     1       0.5854559418E-02       4    3    1         0.3054361367E+00      0.1344368410E+01
          0                 2           2             4    7     1      -0.1403383063E-02       4    7    1        -0.7488172283E-01      0.1683234701E+00
          0                 3           2             4    7     1      -0.3476552944E-03       4    7    1        -0.1853449307E-01      0.2918087831E-01
          0                 4           1             4    7     1      -0.8622148403E-04       4    7    1        -0.4593055554E-02      0.6976413116E-02

    ------------------------------------------------
       NWT REQUIRED            4 OUTER ITERATIONS 
       AND A TOTAL OF          7 INNER ITERATIONS.
    ------------------------------------------------

 NO OUTPUT CONTROL FOR STRESS PERIOD   41   TIME STEP   13
 
 SOLVING FOR HEAD 
                                                   Max.-Head-Change                         Max.-Flux-Residual
  Residual-Control   Outer-Iter.   Inner-Iter.     Column Row Layer    Maximum-Head-Change  Column Row Layer    Maximum-Flux-Residual          L2-NORM 
          0                 1           2             4    3     1       0.5828458914E-02       4    3    1         0.3040748404E+00      0.1330552280E+01
          0                 2           2             4    7     1      -0.1350518571E-02       4    7    1        -0.7202279628E-01      0.1657060191E+00
          0                 3           2             4    7     1      -0.3348110516E-03       4    7    1        -0.1784012922E-01      0.2850572584E-01
          0                 4           1             4    7     1      -0.8309699958E-04       4    7    1        -0.4424323622E-02      0.6807351171E-02

    ------------------------------------------------
       NWT REQUIRED            4 OUTER ITERATIONS 
       AND A TOTAL OF          7 INNER ITERATIONS.
    ------------------------------------------------

 NO OUTPUT CONTROL FOR STRESS PERIOD   41   TIME STEP   14
 
 SOLVING FOR HEAD 
                                                   Max.-Head-Change                         Max.-Flux-Residual
  Residual-Control   Outer-Iter.   Inner-Iter.     Column Row Layer    Maximum-Head-Change  Column Row Layer    Maximum-Flux-Residual          L2-NORM 
          0                 1           2             4    3     1       0.5802749214E-02       4    3    1         0.3027336526E+00      0.1316251014E+01
          0                 2           2             4    7     1      -0.1300597379E-02       4    7    1        -0.6932811467E-01      0.1625563046E+00
          0                 3           2             4    7     1      -0.3226432802E-03       4    7    1        -0.1718391797E-01      0.2761844553E-01
          0                 4           1             4    7     1      -0.8012560060E-04       4    7    1        -0.4264320075E-02      0.6583782554E-02

    ------------------------------------------------
       NWT REQUIRED            4 OUTER ITERATIONS 
       AND A TOTAL OF          7 INNER ITERATIONS.
    ------------------------------------------------

 NO OUTPUT CONTROL FOR STRESS PERIOD   41   TIME STEP   15
 
 SOLVING FOR HEAD 
                                                   Max.-Head-Change                         Max.-Flux-Residual
  Residual-Control   Outer-Iter.   Inner-Iter.     Column Row Layer    Maximum-Head-Change  Column Row Layer    Maximum-Flux-Residual          L2-NORM 
          0                 1           2             4    3     1       0.5776973745E-02       4    3    1         0.3013885335E+00      0.1302940831E+01
          0                 2           2             4    7     1      -0.1253351890E-02       4    7    1        -0.6678158474E-01      0.1596008113E+00
          0                 3           2             4    7     1      -0.3111041436E-03       4    7    1        -0.1656251833E-01      0.2677245037E-01
          0                 4           1             4    7     1      -0.7730211904E-04       4    7    1        -0.4112425574E-02      0.6369318048E-02

    ------------------------------------------------
       NWT REQUIRED            4 OUTER ITERATIONS 
       AND A TOTAL OF          7 INNER ITERATIONS.
    ------------------------------------------------

 NO OUTPUT CONTROL FOR STRESS PERIOD   41   TIME STEP   16
 
 SOLVING FOR HEAD 
                                                   Max.-Head-Change                         Max.-Flux-Residual
  Residual-Control   Outer-Iter.   Inner-Iter.     Column Row Layer    Maximum-Head-Change  Column Row Layer    Maximum-Flux-Residual          L2-NORM 
          0                 1           2             4    3     1       0.5751366241E-02       4    3    1         0.3000521022E+00      0.1290485697E+01
          0                 2           2             4    7     1      -0.1208544611E-02       4    7    1        -0.6436974153E-01      0.1568171730E+00
          0                 3           2             4    7     1      -0.3001398864E-03       4    7    1        -0.1597287533E-01      0.2596452492E-01
          0                 4           1             4    7     1      -0.7461440876E-04       4    7    1        -0.3968080506E-02      0.6163412331E-02

    ------------------------------------------------
       NWT REQUIRED            4 OUTER ITERATIONS 
       AND A TOTAL OF          7 INNER ITERATIONS.
    ------------------------------------------------

 NO OUTPUT CONTROL FOR STRESS PERIOD   41   TIME STEP   17
 
 SOLVING FOR HEAD 
                                                   Max.-Head-Change                         Max.-Flux-Residual
  Residual-Control   Outer-Iter.   Inner-Iter.     Column Row Layer    Maximum-Head-Change  Column Row Layer    Maximum-Flux-Residual          L2-NORM 
          0                 1           2             4    3     1       0.5725936053E-02       4    3    1         0.2987243801E+00      0.1278782290E+01
          0                 2           2             4    7     1      -0.1165962685E-02       4    7    1        -0.6208059987E-01      0.1541873283E+00
          0                 3           2             4    7     1      -0.2897016346E-03       4    7    1        -0.1541222405E-01      0.2519040041E-01
          0                 4           1             4    7     1      -0.7205124278E-04       4    7    1        -0.3830590130E-02      0.5965077095E-02

    ------------------------------------------------
       NWT REQUIRED            4 OUTER ITERATIONS 
       AND A TOTAL OF          7 INNER ITERATIONS.
    ------------------------------------------------

 NO OUTPUT CONTROL FOR STRESS PERIOD   41   TIME STEP   18
 
 SOLVING FOR HEAD 
                                                   Max.-Head-Change                         Max.-Flux-Residual
  Residual-Control   Outer-Iter.   Inner-Iter.     Column Row Layer    Maximum-Head-Change  Column Row Layer    Maximum-Flux-Residual          L2-NORM 
          0                 1           2             4    3     1       0.5700455770E-02       4    3    1         0.2973937537E+00      0.1267717543E+01
          0                 2           2             4    7     1      -0.1125412130E-02       4    7    1        -0.5990337160E-01      0.1516933016E+00
          0                 3           2             4    7     1      -0.2797441142E-03       4    7    1        -0.1487804650E-01      0.2444665958E-01
          0                 4           1             4    7     1      -0.6960204364E-04       4    7    1        -0.3699366673E-02      0.5773579166E-02

    ------------------------------------------------
       NWT REQUIRED            4 OUTER ITERATIONS 
       AND A TOTAL OF          7 INNER ITERATIONS.
    ------------------------------------------------

 NO OUTPUT CONTROL FOR STRESS PERIOD   41   TIME STEP   19
 
 SOLVING FOR HEAD 
                                                   Max.-Head-Change                         Max.-Flux-Residual
  Residual-Control   Outer-Iter.   Inner-Iter.     Column Row Layer    Maximum-Head-Change  Column Row Layer    Maximum-Flux-Residual          L2-NORM 
          0                 1           2             4    3     1       0.5675387289E-02       4    3    1         0.2960847267E+00      0.1257218781E+01
          0                 2           2             4    7     1      -0.1086728322E-02       4    7    1        -0.5782866367E-01      0.1493248544E+00
          0                 3           2             4    7     1      -0.2702303723E-03       4    7    1        -0.1436822951E-01      0.2373196948E-01
          0                 4           1             4    7     1      -0.6725853968E-04       4    7    1        -0.3573936282E-02      0.5588676075E-02

    ------------------------------------------------
       NWT REQUIRED            4 OUTER ITERATIONS 
       AND A TOTAL OF          7 INNER ITERATIONS.
    ------------------------------------------------

 NO OUTPUT CONTROL FOR STRESS PERIOD   41   TIME STEP   20
 
 SOLVING FOR HEAD 
                                                   Max.-Head-Change                         Max.-Flux-Residual
  Residual-Control   Outer-Iter.   Inner-Iter.     Column Row Layer    Maximum-Head-Change  Column Row Layer    Maximum-Flux-Residual          L2-NORM 
          0                 1           2             5    3     1       0.5652089241E-02       4    3    1         0.2947728546E+00      0.1247215969E+01
          0                 2           2             4    7     1      -0.1049820293E-02       4    7    1        -0.5585144338E-01      0.1470688041E+00
          0                 3           2             4    7     1      -0.2611390197E-03       4    7    1        -0.1388158977E-01      0.2304331795E-01
          0                 4           1             4    7     1      -0.6501569291E-04       4    7    1        -0.3454020640E-02      0.5409698095E-02

    ------------------------------------------------
       NWT REQUIRED            4 OUTER ITERATIONS 
       AND A TOTAL OF          7 INNER ITERATIONS.
    ------------------------------------------------

 NO OUTPUT CONTROL FOR STRESS PERIOD   41   TIME STEP   21
 
 SOLVING FOR HEAD 
                                                   Max.-Head-Change                         Max.-Flux-Residual
  Residual-Control   Outer-Iter.   Inner-Iter.     Column Row Layer    Maximum-Head-Change  Column Row Layer    Maximum-Flux-Residual          L2-NORM 
          0                 1           2             5    3     1       0.5635841740E-02       4    3    1         0.2934708073E+00      0.1237659999E+01
          0                 2           2             4    7     1      -0.1014485872E-02       4    7    1        -0.5396038367E-01      0.1449183648E+00
          0                 3           2             4    7     1      -0.2524233699E-03       4    7    1        -0.1341551120E-01      0.2237946451E-01
          0                 4           1             4    7     1      -0.6286271704E-04       4    7    1        -0.3339015650E-02      0.5236350018E-02

    ------------------------------------------------
       NWT REQUIRED            4 OUTER ITERATIONS 
       AND A TOTAL OF          7 INNER ITERATIONS.
    ------------------------------------------------

 NO OUTPUT CONTROL FOR STRESS PERIOD   41   TIME STEP   22
 
 SOLVING FOR HEAD 
                                                   Max.-Head-Change                         Max.-Flux-Residual
  Residual-Control   Outer-Iter.   Inner-Iter.     Column Row Layer    Maximum-Head-Change  Column Row Layer    Maximum-Flux-Residual          L2-NORM 
          0                 1           2             5    3     1       0.5619555824E-02       4    3    1         0.2921785545E+00      0.1228493687E+01
          0                 2           2             4    7     1      -0.9806014023E-03       4    7    1        -0.5214868806E-01      0.1428591321E+00
          0                 3           2             4    7     1      -0.2440541290E-03       4    7    1        -0.1296838107E-01      0.2173757088E-01
          0                 4           1             4    7     1      -0.6079265749E-04       4    7    1        -0.3228539298E-02      0.5067988963E-02

    ------------------------------------------------
       NWT REQUIRED            4 OUTER ITERATIONS 
       AND A TOTAL OF          7 INNER ITERATIONS.
    ------------------------------------------------

 NO OUTPUT CONTROL FOR STRESS PERIOD   41   TIME STEP   23
 
 SOLVING FOR HEAD 
                                                   Max.-Head-Change                         Max.-Flux-Residual
  Residual-Control   Outer-Iter.   Inner-Iter.     Column Row Layer    Maximum-Head-Change  Column Row Layer    Maximum-Flux-Residual          L2-NORM 
          0                 1           2             5    3     1       0.5603237107E-02       4    3    1         0.2908961996E+00      0.1219681275E+01
          0                 2           2             4    7     1      -0.9481260981E-03       4    7    1        -0.5041386342E-01      0.1408905621E+00
          0                 3           2             4    7     1      -0.2360230311E-03       4    7    1        -0.1253969173E-01      0.2111793263E-01
          0                 4           1             4    7     1      -0.5880389252E-04       4    7    1        -0.3122489201E-02      0.4904736091E-02

    ------------------------------------------------
       NWT REQUIRED            4 OUTER ITERATIONS 
       AND A TOTAL OF          7 INNER ITERATIONS.
    ------------------------------------------------

 NO OUTPUT CONTROL FOR STRESS PERIOD   41   TIME STEP   24
 
 SOLVING FOR HEAD 
                                                   Max.-Head-Change                         Max.-Flux-Residual
  Residual-Control   Outer-Iter.   Inner-Iter.     Column Row Layer    Maximum-Head-Change  Column Row Layer    Maximum-Flux-Residual          L2-NORM 
          0                 1           2             5    3     1       0.5586885585E-02       4    3    1         0.2896115897E+00      0.1211187447E+01
          0                 2           2             4    7     1      -0.9168895771E-03       4    7    1        -0.4874663284E-01      0.1390023600E+00
          0                 3           2             4    7     1      -0.2282892315E-03       4    7    1        -0.1212721240E-01      0.2051787900E-01
          0                 4           1             4    7     1      -0.5688661755E-04       4    7    1        -0.3020330942E-02      0.4745944916E-02

    ------------------------------------------------
       NWT REQUIRED            4 OUTER ITERATIONS 
       AND A TOTAL OF          7 INNER ITERATIONS.
    ------------------------------------------------

 NO OUTPUT CONTROL FOR STRESS PERIOD   41   TIME STEP   25
 
 SOLVING FOR HEAD 
                                                   Max.-Head-Change                         Max.-Flux-Residual
  Residual-Control   Outer-Iter.   Inner-Iter.     Column Row Layer    Maximum-Head-Change  Column Row Layer    Maximum-Flux-Residual          L2-NORM 
          0                 1           2             5    3     1       0.5570050995E-02       4    3    1         0.2883493643E+00      0.1202986235E+01
          0                 2           2             4    7     1      -0.8868703695E-03       4    7    1        -0.4714563619E-01      0.1372007998E+00
          0                 3           2             4    7     1      -0.2208485812E-03       4    7    1        -0.1173068028E-01      0.1993749602E-01
          0                 4           1             4    7     1      -0.5504006722E-04       4    7    1        -0.2922013963E-02      0.4591575475E-02

    ------------------------------------------------
       NWT REQUIRED            4 OUTER ITERATIONS 
       AND A TOTAL OF          7 INNER ITERATIONS.
    ------------------------------------------------

 NO OUTPUT CONTROL FOR STRESS PERIOD   41   TIME STEP   26
 
 SOLVING FOR HEAD 
                                                   Max.-Head-Change                         Max.-Flux-Residual
  Residual-Control   Outer-Iter.   Inner-Iter.     Column Row Layer    Maximum-Head-Change  Column Row Layer    Maximum-Flux-Residual          L2-NORM 
          0                 1           2             5    3     1       0.5551540876E-02       4    3    1         0.2768236767E+00      0.1190883860E+01
          0                 2           2             4    7     1      -0.8579936887E-03       4    7    1        -0.4560654546E-01      0.1350635808E+00
          0                 3           2             4    7     1      -0.2136849255E-03       4    7    1        -0.1134914226E-01      0.1936285772E-01
          0                 4           1             4    7     1      -0.5326081703E-04       4    7    1        -0.2827333908E-02      0.4442148993E-02

    ------------------------------------------------
       NWT REQUIRED            4 OUTER ITERATIONS 
       AND A TOTAL OF          7 INNER ITERATIONS.
    ------------------------------------------------

 NO OUTPUT CONTROL FOR STRESS PERIOD   41   TIME STEP   27
 
 SOLVING FOR HEAD 
                                                   Max.-Head-Change                         Max.-Flux-Residual
  Residual-Control   Outer-Iter.   Inner-Iter.     Column Row Layer    Maximum-Head-Change  Column Row Layer    Maximum-Flux-Residual          L2-NORM 
          0                 1           2             5    3     1       0.5526903744E-02       6    4    1         0.2652309175E+00      0.1207982351E+01
          0                 2           2             4    7     1      -0.8319672868E-03       4    7    1        -0.4418949342E-01      0.1357420050E+00
          0                 3           2             4    7     1      -0.2073422122E-03       4    7    1        -0.1100825117E-01      0.1899957951E-01
          0                 4           1             4    7     1      -0.5168559567E-04       4    7    1        -0.2743811765E-02      0.4303280153E-02

    ------------------------------------------------
       NWT REQUIRED            4 OUTER ITERATIONS 
       AND A TOTAL OF          7 INNER ITERATIONS.
    ------------------------------------------------

 NO OUTPUT CONTROL FOR STRESS PERIOD   41   TIME STEP   28
 
 SOLVING FOR HEAD 
                                                   Max.-Head-Change                         Max.-Flux-Residual
  Residual-Control   Outer-Iter.   Inner-Iter.     Column Row Layer    Maximum-Head-Change  Column Row Layer    Maximum-Flux-Residual          L2-NORM 
          0                 1           2             5    3     1       0.5502602070E-02       6    4    1         0.2629594461E+00      0.1209411464E+01
          0                 2           2             4    6     1      -0.1079478680E-02       4    6    1        -0.5785986638E-01      0.1431834925E+00
          0                 3           2             4    6     1      -0.2650805702E-03       4    6    1        -0.1422752974E-01      0.2254205388E-01
          0                 4           1             4    6     1      -0.6514274232E-04       4    6    1        -0.3492704886E-02      0.5255468334E-02

    ------------------------------------------------
       NWT REQUIRED            4 OUTER ITERATIONS 
       AND A TOTAL OF          7 INNER ITERATIONS.
    ------------------------------------------------

 NO OUTPUT CONTROL FOR STRESS PERIOD   41   TIME STEP   29
 
 SOLVING FOR HEAD 
                                                   Max.-Head-Change                         Max.-Flux-Residual
  Residual-Control   Outer-Iter.   Inner-Iter.     Column Row Layer    Maximum-Head-Change  Column Row Layer    Maximum-Flux-Residual          L2-NORM 
          0                 1           2             5    3     1       0.5478620394E-02       6    4    1         0.2607530269E+00      0.1192465686E+01
          0                 2           2             4    6     1      -0.1026130576E-02       4    6    1        -0.5497302438E-01      0.1403180498E+00
          0                 3           2             4    6     1      -0.2521517258E-03       4    6    1        -0.1352713641E-01      0.2181635170E-01
          0                 4           1             4    6     1      -0.6200630432E-04       4    6    1        -0.3323001619E-02      0.5072097152E-02

    ------------------------------------------------
       NWT REQUIRED            4 OUTER ITERATIONS 
       AND A TOTAL OF          7 INNER ITERATIONS.
    ------------------------------------------------

 NO OUTPUT CONTROL FOR STRESS PERIOD   41   TIME STEP   30



 STREAM LISTING     PERIOD     41   STEP       30

 LAYER ROW COL. STREAM  RCH.  FLOW INTO     FLOW TO   FLOW OUT OF   OVRLND.     DIRECT     STREAM       STREAM     STREAM     STREAM   STREAMBED  STREAMBED
                SEG.NO.  NO.  STRM. RCH.    AQUIFER    STRM. RCH.    RUNOFF     PRECIP       ET          HEAD       DEPTH      WIDTH   CONDCTNC.   GRADIENT

   1    1    1     1     1    4.7249E+01  3.2762E-01   4.6921E+01  0.000E+00  0.000E+00  0.000E+00  1.09443E+03  1.381E+00  1.662E+01  7.477E-02  1.460E+00
   1    2    2     1     2    4.6921E+01  5.0759E-01   4.6413E+01  0.000E+00  0.000E+00  0.000E+00  1.08944E+03  1.379E+00  1.656E+01  1.159E-01  1.460E+00
   1    3    3     1     3    4.6413E+01  4.3309E-01   4.5980E+01  0.000E+00  0.000E+00  0.000E+00  1.08379E+03  1.376E+00  1.650E+01  9.898E-02  1.459E+00
   1    3    4     1     4    4.5980E+01  3.9899E-01   4.5581E+01  0.000E+00  0.000E+00  0.000E+00  1.07878E+03  1.373E+00  1.644E+01  9.124E-02  1.458E+00
   1    4    5     2     1    4.3581E+01  3.6514E-01   4.3216E+01  0.000E+00  0.000E+00  0.000E+00  1.07362E+03  1.681E+00  1.200E+01  7.800E-02  1.560E+00
   1    5    6     2     2    4.3216E+01  2.8042E-01   4.2936E+01  0.000E+00  0.000E+00  0.000E+00  1.06818E+03  1.674E+00  1.200E+01  6.000E-02  1.558E+00
   1    6    6     2     3    4.2936E+01  2.8003E-01   4.2656E+01  0.000E+00  0.000E+00  0.000E+00  1.06346E+03  1.667E+00  1.200E+01  6.000E-02  1.556E+00
   1    7    6     2     4    4.2656E+01  2.7964E-01   4.2376E+01  0.000E+00  0.000E+00  0.000E+00  1.05874E+03  1.661E+00  1.200E+01  6.000E-02  1.554E+00
   1    8    6     2     5    4.2376E+01  2.7924E-01   4.2097E+01  0.000E+00  0.000E+00  0.000E+00  1.05401E+03  1.654E+00  1.200E+01  6.000E-02  1.551E+00
   1    3    5     3     1    2.0000E+00  2.8252E-01   1.7175E+00  0.000E+00  0.000E+00  0.000E+00  1.07555E+03  1.909E+00  9.636E+00  7.227E-02  1.955E+00
   1    3    6     3     2    1.7175E+00  2.4905E-01   1.4684E+00  0.000E+00  0.000E+00  0.000E+00  1.07264E+03  1.727E+00  8.909E+00  6.682E-02  1.864E+00
   1    3    7     3     3    1.4684E+00  1.9718E-01   1.2712E+00  0.000E+00  0.000E+00  0.000E+00  1.06987E+03  1.555E+00  8.218E+00  5.547E-02  1.777E+00
   1    4    8     3     4    1.2712E+00  2.2567E-01   1.0456E+00  0.000E+00  0.000E+00  0.000E+00  1.06682E+03  1.364E+00  7.455E+00  6.709E-02  1.682E+00
   1    5    8     3     5    1.0456E+00  1.5790E-01   8.8768E-01  0.000E+00  0.000E+00  0.000E+00  1.06362E+03  1.164E+00  6.655E+00  4.991E-02  1.582E+00
   1    6    8     3     6    8.8768E-01  5.5980E-02   8.3170E-01  0.000E+00  0.000E+00  0.000E+00  1.06158E+03  1.036E+00  6.145E+00  1.844E-02  1.518E+00
   1    5   10     4     1    1.0000E+01  9.0919E-02   9.9091E+00  0.000E+00  0.000E+00  0.000E+00  1.07836E+03  6.368E-01  1.000E+01  2.500E-02  1.212E+00
   1    5    9     4     2    9.9091E+00  1.8158E-01   9.7275E+00  0.000E+00  0.000E+00  0.000E+00  1.07154E+03  6.315E-01  1.000E+01  5.000E-02  1.211E+00
   1    6    8     4     3    9.7275E+00  1.2689E-01   9.6006E+00  0.000E+00  0.000E+00  0.000E+00  1.06381E+03  6.256E-01  1.000E+01  3.500E-02  1.209E+00
   1    6    8     5     1    1.0432E+01  2.2686E-01   1.0205E+01  0.000E+00  0.000E+00  0.000E+00  1.05868E+03  6.790E-01  1.542E+01  6.166E-02  1.226E+00
   1    7    7     5     2    1.0205E+01  2.7894E-01   9.9265E+00  0.000E+00  0.000E+00  0.000E+00  1.05417E+03  6.732E-01  1.519E+01  7.594E-02  1.224E+00
   1    8    7     5     3    9.9265E+00  1.9221E-01   9.7343E+00  0.000E+00  0.000E+00  0.000E+00  1.04992E+03  6.676E-01  1.497E+01  5.241E-02  1.223E+00
   1    8    6     5     4    9.7343E+00  1.3577E-01   9.5985E+00  0.000E+00  0.000E+00  0.000E+00  1.04691E+03  6.637E-01  1.482E+01  3.706E-02  1.221E+00
   1    9    6     6     1    5.1695E+01  2.9310E-01   5.1402E+01  0.000E+00  0.000E+00  0.000E+00  1.04461E+03  1.885E+00  1.200E+01  6.000E-02  1.628E+00
   1   10    7     6     2    5.1402E+01  2.9271E-01   5.1110E+01  0.000E+00  0.000E+00  0.000E+00  1.04006E+03  1.879E+00  1.200E+01  6.000E-02  1.626E+00
   1   11    7     6     3    5.1110E+01  2.9233E-01   5.0817E+01  0.000E+00  0.000E+00  0.000E+00  1.03551E+03  1.872E+00  1.200E+01  6.000E-02  1.624E+00
   1   12    7     6     4    5.0817E+01  2.9194E-01   5.0525E+01  0.000E+00  0.000E+00  0.000E+00  1.03096E+03  1.866E+00  1.200E+01  6.000E-02  1.622E+00
   1   13    7     6     5    5.0525E+01  2.3631E-02   5.0502E+01  0.000E+00  0.000E+00  0.000E+00  1.02777E+03  1.862E+00  1.200E+01  2.400E-02  3.282E-01
   1   14    9     7     1    1.5000E+02  1.3745E+00   1.4863E+02  0.000E+00  0.000E+00  0.000E+00  1.03987E+03  2.288E+00  5.529E+01  5.593E-01  8.192E-01
   1   13    8     7     2    1.4863E+02  1.9457E+00   1.4668E+02  0.000E+00  0.000E+00  0.000E+00  1.03478E+03  2.279E+00  5.525E+01  6.147E-01  1.055E+00
   1   13    7     7     3    1.4668E+02  1.6205E+00   1.4506E+02  0.000E+00  0.000E+00  0.000E+00  1.02969E+03  2.269E+00  5.521E+01  5.584E-01  9.673E-01
   1   13    6     8     1    1.9556E+02  1.1530E+00   1.9441E+02  0.000E+00  0.000E+00  0.000E+00  1.02498E+03  3.108E+00  4.507E+01  4.592E-01  8.369E-01
   1   13    5     8     2    1.9441E+02  3.3296E-01   1.9408E+02  0.000E+00  0.000E+00  0.000E+00  1.01873E+03  3.104E+00  4.500E+01  4.586E-01  2.420E-01
   1   13    4     8     3    1.9408E+02 -2.1308E+00   1.9621E+02  0.000E+00  0.000E+00  0.000E+00  1.01248E+03  3.109E+00  4.508E+01  4.594E+00 -1.546E-01
   1   13    3     8     4    1.9621E+02 -3.5321E+00   1.9974E+02  0.000E+00  0.000E+00  0.000E+00  1.00625E+03  3.126E+00  4.532E+01  4.619E+00 -2.549E-01
   1   13    2     8     5    1.9974E+02 -2.6520E+00   2.0239E+02  0.000E+00  0.000E+00  0.000E+00  1.00002E+03  3.144E+00  4.559E+01  4.646E+00 -1.903E-01
   1   13    1     8     6    2.0239E+02 -2.0611E+00   2.0445E+02  0.000E+00  0.000E+00  0.000E+00  9.95033E+02  3.158E+00  4.579E+01  2.800E+00 -2.454E-01
   1    8    6     9     1    0.0000E+00  0.0000E+00   0.0000E+00  0.000E+00  0.000E+00  0.000E+00  1.07875E+03  0.000E+00  4.000E+00  0.000E+00  1.000E+00
   1    8    5     9     2    0.0000E+00  0.0000E+00   0.0000E+00  0.000E+00  0.000E+00  0.000E+00  1.07825E+03  0.000E+00  4.000E+00  0.000E+00  1.000E+00





UNSATURATED ZONE PACKAGE VOLUMETRIC BUDGET FOR  TIME STEP    30 STRESS PERIOD   41
  ------------------------------------------------------------------------------



     CUMULATIVE VOLUMES      L**3       RATES FOR THIS TIME STEP      L**3/T
     ------------------                 ------------------------

           IN:                                      IN:
           ---                                      ---
        INFILTRATION =  9768452578.2552          INFILTRATION =           0.8475

          OUT:                                     OUT:
          ----                                     ----
              UZF ET =  1295617337.9572                UZF ET =           0.8475
        UZF RECHARGE =  8101906686.4232          UZF RECHARGE =           2.9972

            IN - OUT =   370928553.8747              IN - OUT =          -2.9972

          STORAGE:                                 STORAGE:
          --------                                 --------
      STORAGE CHANGE =   372241340.9175        STORAGE CHANGE =          -2.9972

 PERCENT DISCREPANCY IS DIFFERENCE BETWEEN IN-OUT MINUS CHANGE IN STORAGE
 DIVIDED BY THE AVERAGE OF IN AND OUT TIMES 100

 PERCENT DISCREPANCY =          -0.00     PERCENT DISCREPANCY =           0.00






1
  VOLUMETRIC BUDGET FOR AGRICULTURAL FIELDS AT  END OF TIME STEP   30, STRESS PERIOD  41
  ------------------------------------------------------------------------------

     CUMULATIVE VOLUMES      L**3       RATES FOR THIS TIME STEP      L**3/T
     ------------------                 ------------------------

           IN:                                      IN:
           ---                                      ---
               AG WELLS  =  8726962176.0000                 AG WELLS  =           0.0000
      DIVERSION SEGMENTS =   952273088.0000        DIVERSION SEGMENTS =           0.0000
       IRRIGATION PONDS  =           0.0000         IRRIGATION PONDS  =           0.0000
           GW IRRIGATION =           0.0000             GW IRRIGATION =           0.0000
           SW IRRIGATION =           0.0000             SW IRRIGATION =           0.0000
        SYSTEM LOSSES GW =           0.0000          SYSTEM LOSSES GW =           0.0000
        SYSTEM LOSSES SW =           0.0000          SYSTEM LOSSES SW =           0.0000

                TOTAL IN =  9679235072.0000                  TOTAL IN =           0.0000

          OUT:                                     OUT:
          ----                                     ----
               AG WELLS  =           0.0000                 AG WELLS  =           0.0000
      DIVERSION SEGMENTS =           0.0000        DIVERSION SEGMENTS =           0.0000
       IRRIGATION PONDS  =           0.0000         IRRIGATION PONDS  =           0.0000
           GW IRRIGATION =  8726962176.0000             GW IRRIGATION =           0.0000
           SW IRRIGATION =   952291008.0000             SW IRRIGATION =           0.0000
        SYSTEM LOSSES GW =           0.0000          SYSTEM LOSSES GW =           0.0000
        SYSTEM LOSSES SW =           0.0000          SYSTEM LOSSES SW =           0.0000

               TOTAL OUT =  9679253504.0000                 TOTAL OUT =           0.0000

                IN - OUT =      -18432.0000                  IN - OUT =           0.0000

     PERCENT DISCREPANCY =          -0.00         PERCENT DISCREPANCY =           0.00



1
  VOLUMETRIC BUDGET FOR ENTIRE MODEL AT END OF TIME STEP   30, STRESS PERIOD  41
  ------------------------------------------------------------------------------

     CUMULATIVE VOLUMES      L**3       RATES FOR THIS TIME STEP      L**3/T
     ------------------                 ------------------------

           IN:                                      IN:
           ---                                      ---
             STORAGE     =  7167430144.0000               STORAGE     =           2.0863
       CONSTANT HEAD     =           0.0000         CONSTANT HEAD     =           0.0000
     HEAD DEP BOUNDS     =    30193082.0000       HEAD DEP BOUNDS     =           0.2884
      STREAM LEAKAGE     =  1302536576.0000        STREAM LEAKAGE     =          13.1736
        UZF RECHARGE     =  8101903872.0000          UZF RECHARGE     =           2.9972
               GW ET     =           0.0000                 GW ET     =           0.0000
     SURFACE LEAKAGE     =           0.0000       SURFACE LEAKAGE     =           0.0000
           AG WELLS      =           0.0000             AG WELLS      =           0.0000

                TOTAL IN = 16602063872.0000                  TOTAL IN =          18.5454

          OUT:                                     OUT:
          ----                                     ----
             STORAGE     =  6772067840.0000               STORAGE     =           7.8578
       CONSTANT HEAD     =           0.0000         CONSTANT HEAD     =           0.0000
     HEAD DEP BOUNDS     =    30591188.0000       HEAD DEP BOUNDS     =           0.2952
      STREAM LEAKAGE     =  1070834688.0000        STREAM LEAKAGE     =          10.3760
        UZF RECHARGE     =           0.0000          UZF RECHARGE     =           0.0000
               GW ET     =     1532539.2500                 GW ET     =       1.9234E-02
     SURFACE LEAKAGE     =           0.0000       SURFACE LEAKAGE     =           0.0000
           AG WELLS      =  8726962176.0000             AG WELLS      =           0.0000

               TOTAL OUT = 16601988096.0000                 TOTAL OUT =          18.5482

                IN - OUT =       75776.0000                  IN - OUT =      -2.8019E-03

     PERCENT DISCREPANCY =           0.00         PERCENT DISCREPANCY =          -0.02






         TIME SUMMARY AT END OF TIME STEP   30 IN STRESS PERIOD   41
                    SECONDS     MINUTES      HOURS       DAYS        YEARS
                    -----------------------------------------------------------
   TIME STEP LENGTH  87667.      1461.1      24.352      1.0147     2.77799E-03
 STRESS PERIOD TIME 2.63000E+06  43833.      730.56      30.440     8.33397E-02
         TOTAL TIME 1.05286E+08 1.75476E+06  29246.      1218.6      3.3363    
1
1
                            STRESS PERIOD NO.   42, LENGTH =   2630000.    
                            -----------------------------------------------

                              NUMBER OF TIME STEPS =    30

                               MULTIPLIER FOR DELT =     1.000

                            INITIAL TIME STEP SIZE =   87666.66    

 REUSING NON-PARAMETER GHB CELLS FROM LAST STRESS PERIOD

      2 GHB CELLS

 REUSING STREAM SEGMENT DATA FROM LAST STRESS PERIOD



            AREAL INFILTRATION RATE
 READING ON UNIT   19 WITH FORMAT: (FREE)              

            1           2           3           4           5           6           7           8           9          10
 ........................................................................................................................
   1   1.0000E-10  2.0000E-10   0.000       0.000       0.000       0.000       0.000       0.000       0.000       0.000    
   2   2.0000E-10  1.0000E-10  2.0000E-10   0.000       0.000      8.0000E-10  8.0000E-10  5.0000E-10   0.000       0.000    
   3    0.000      5.0000E-10  1.0000E-10  1.0000E-10  8.0000E-10  8.0000E-10  5.0000E-10  5.0000E-10   0.000       0.000    
   4   8.0000E-10  5.0000E-10  1.0000E-10  1.0000E-10  1.0000E-10  1.0000E-10  1.0000E-10  1.0000E-10  2.0000E-10   0.000    
   5   8.0000E-10  5.0000E-10  1.0000E-10  1.0000E-10  1.0000E-10  1.0000E-10  1.0000E-10  1.0000E-10  1.0000E-10  1.0000E-10
   6   8.0000E-10  5.0000E-10  5.0000E-10  2.0000E-10  2.0000E-10  1.0000E-10  1.0000E-10  1.0000E-10  1.0000E-10  5.0000E-10
   7   8.0000E-10  5.0000E-10  5.0000E-10  2.0000E-10  2.0000E-10  1.0000E-10  1.0000E-10  2.0000E-10  2.0000E-10   0.000    
   8    0.000      5.0000E-10  5.0000E-10  2.0000E-10  2.0000E-10  1.0000E-10  1.0000E-10  2.0000E-10  5.0000E-10   0.000    
   9    0.000      5.0000E-10  5.0000E-10  2.0000E-10  2.0000E-10  1.0000E-10  1.0000E-10  2.0000E-10  5.0000E-10   0.000    
  10    0.000      5.0000E-10  5.0000E-10  2.0000E-10  2.0000E-10  1.0000E-10  1.0000E-10  2.0000E-10  5.0000E-10  8.0000E-10
  11    0.000      1.0000E-10  1.0000E-10  1.0000E-10  1.0000E-10  1.0000E-10  1.0000E-10  2.0000E-10  5.0000E-10   0.000    
  12   1.0000E-10  1.0000E-10  1.0000E-10  1.0000E-10  1.0000E-10  1.0000E-10  1.0000E-10  1.0000E-10  2.0000E-10   0.000    
  13   1.0000E-10  1.0000E-10  2.0000E-10  2.0000E-10  2.0000E-10  2.0000E-10  2.0000E-10  1.0000E-10  1.0000E-10   0.000    
  14    0.000      2.0000E-10  5.0000E-10  5.0000E-10  5.0000E-10  5.0000E-10  5.0000E-10  2.0000E-10  1.0000E-10   0.000    
  15    0.000       0.000      8.0000E-10  8.0000E-10  8.0000E-10  8.0000E-10   0.000       0.000       0.000       0.000    

                  ET RATE =  5.000000E-08

 USING ET EXTINCTION DEPTH FROM PREVIOUS STRESS PERIOD. CURRENT PERIOD IS:      42

 USING EXTINCTION WATER CONTENT FROM PREVIOUS STRESS PERIOD. CURRENT PERIOD IS:      42

 USING AIR ENTRY PRESSURE FROM PREVIOUS STRESS PERIOD. CURRENT PERIOD IS:      42

 USING ROOT PRESSURE HEAD FROM PREVIOUS STRESS PERIOD. CURRENT PERIOD IS:      42

 USING ROOT ACTIVITY FROM PREVIOUS STRESS PERIOD. CURRENT PERIOD IS:      42

 PROCESSING AG STRESS PERIOD DATA

 READING AG STRESS PERIOD DATA

 READING IRRIGATION SEGMENT

 READING IRRIGATION WELL

 READING SUPPLEMENTAL WELL

 NO IRRPOND OR REUSING IRRPOND DATA FROM LAST STRESS PERIOD

 END PROCESSING AG STRESS PERIOD DATA OPTIONS
 
 SOLVING FOR HEAD 
                                                   Max.-Head-Change                         Max.-Flux-Residual
  Residual-Control   Outer-Iter.   Inner-Iter.     Column Row Layer    Maximum-Head-Change  Column Row Layer    Maximum-Flux-Residual          L2-NORM 
          0                 1           2             5    3     1       0.5454947859E-02       6    4    1         0.2585850313E+00      0.1179517500E+01
          0                 2           2             4    7     1      -0.1914848388E+01       4    6    1        -0.1000522635E+03      0.2450193901E+03
          0                 3           2             4    7     1       0.1763470708E+00       4    6    1         0.9481803086E+01      0.2305055945E+02
          0                 4           2             4    7     1      -0.1200877582E-01       4    6    1        -0.6637941925E+00      0.1615826127E+01
          0                 5           2             4    7     1       0.4778394311E-03       4    6    1         0.2715144654E-01      0.6667487118E-01
          0                 6           1             4    7     1      -0.5891968940E-05       4    6    1        -0.3441205261E-03      0.9270996448E-03

    ------------------------------------------------
       NWT REQUIRED            6 OUTER ITERATIONS 
       AND A TOTAL OF         11 INNER ITERATIONS.
    ------------------------------------------------

 NO OUTPUT CONTROL FOR STRESS PERIOD   42   TIME STEP    1
 
 SOLVING FOR HEAD 
                                                   Max.-Head-Change                         Max.-Flux-Residual
  Residual-Control   Outer-Iter.   Inner-Iter.     Column Row Layer    Maximum-Head-Change  Column Row Layer    Maximum-Flux-Residual          L2-NORM 
          0                 1           2             5    8     1       0.4176640459E-01       5    8    1         0.2316878896E+01      0.5302242686E+01
          0                 2           2             7   13     1      -0.4270625233E-02       7   13    1        -0.2368796255E+00      0.5803865842E+00
          0                 3           2             7   13     1       0.2907290913E-03       7   13    1         0.1657685797E-01      0.4062662997E-01
          0                 4           1             7   13     1      -0.1156362456E-04       7   13    1        -0.6777234364E-03      0.1661589506E-02

    ------------------------------------------------
       NWT REQUIRED            4 OUTER ITERATIONS 
       AND A TOTAL OF          7 INNER ITERATIONS.
    ------------------------------------------------

 NO OUTPUT CONTROL FOR STRESS PERIOD   42   TIME STEP    2
 
 SOLVING FOR HEAD 
                                                   Max.-Head-Change                         Max.-Flux-Residual
  Residual-Control   Outer-Iter.   Inner-Iter.     Column Row Layer    Maximum-Head-Change  Column Row Layer    Maximum-Flux-Residual          L2-NORM 
          0                 1           2             5    8     1       0.3915354335E-01       5    8    1         0.2170460073E+01      0.5007147296E+01
          0                 2           2             5    8     1      -0.3809285605E-02       5    8    1        -0.2170510157E+00      0.5005382901E+00
          0                 3           2             5    8     1       0.2593975312E-03       5    8    1         0.1519353022E-01      0.3503721627E-01
          0                 4           1             5    8     1      -0.1032167429E-04       5    8    1        -0.6214164821E-03      0.1432965435E-02

    ------------------------------------------------
       NWT REQUIRED            4 OUTER ITERATIONS 
       AND A TOTAL OF          7 INNER ITERATIONS.
    ------------------------------------------------

 NO OUTPUT CONTROL FOR STRESS PERIOD   42   TIME STEP    3
 
 SOLVING FOR HEAD 
                                                   Max.-Head-Change                         Max.-Flux-Residual
  Residual-Control   Outer-Iter.   Inner-Iter.     Column Row Layer    Maximum-Head-Change  Column Row Layer    Maximum-Flux-Residual          L2-NORM 
          0                 1           2             5    8     1       0.3672628801E-01       5    8    1         0.2034644147E+01      0.4738534561E+01
          0                 2           2             5    8     1      -0.3572528478E-02       5    8    1        -0.2034687765E+00      0.4738444747E+00
          0                 3           2             5    8     1       0.2432753441E-03       5    8    1         0.1424277958E-01      0.3316867121E-01
          0                 4           1             5    8     1      -0.9680156822E-05       5    8    1        -0.5825306860E-03      0.1356559716E-02

    ------------------------------------------------
       NWT REQUIRED            4 OUTER ITERATIONS 
       AND A TOTAL OF          7 INNER ITERATIONS.
    ------------------------------------------------

 NO OUTPUT CONTROL FOR STRESS PERIOD   42   TIME STEP    4
 
 SOLVING FOR HEAD 
                                                   Max.-Head-Change                         Max.-Flux-Residual
  Residual-Control   Outer-Iter.   Inner-Iter.     Column Row Layer    Maximum-Head-Change  Column Row Layer    Maximum-Flux-Residual          L2-NORM 
          0                 1           2             5    8     1       0.3447197923E-01       5    8    1         0.1908543750E+01      0.4489151366E+01
          0                 2           2             5    8     1      -0.3353237786E-02       5    8    1        -0.1908581796E+00      0.4489071838E+00
          0                 3           2             5    8     1       0.2283425384E-03       5    8    1         0.1336004268E-01      0.3142310032E-01
          0                 4           1             5    8     1      -0.9085966122E-05       5    8    1        -0.5464266762E-03      0.1285162027E-02

    ------------------------------------------------
       NWT REQUIRED            4 OUTER ITERATIONS 
       AND A TOTAL OF          7 INNER ITERATIONS.
    ------------------------------------------------

 NO OUTPUT CONTROL FOR STRESS PERIOD   42   TIME STEP    5
 
 SOLVING FOR HEAD 
                                                   Max.-Head-Change                         Max.-Flux-Residual
  Residual-Control   Outer-Iter.   Inner-Iter.     Column Row Layer    Maximum-Head-Change  Column Row Layer    Maximum-Flux-Residual          L2-NORM 
          0                 1           2             5    8     1       0.3237643917E-01       5    8    1         0.1791391927E+01      0.4256693584E+01
          0                 2           2             5    8     1      -0.3210911259E-02       5    8    1        -0.1825270048E+00      0.4306203902E+00
          0                 3           2             6    7     1      -0.1479144380E-03       6    7    1        -0.8428726524E-02      0.2496921601E-01
          0                 4           1             5    8     1      -0.4392105854E-04       5    8    1        -0.2569920454E-02      0.6088172903E-02

    ------------------------------------------------
       NWT REQUIRED            4 OUTER ITERATIONS 
       AND A TOTAL OF          7 INNER ITERATIONS.
    ------------------------------------------------

 NO OUTPUT CONTROL FOR STRESS PERIOD   42   TIME STEP    6
 
 SOLVING FOR HEAD 
                                                   Max.-Head-Change                         Max.-Flux-Residual
  Residual-Control   Outer-Iter.   Inner-Iter.     Column Row Layer    Maximum-Head-Change  Column Row Layer    Maximum-Flux-Residual          L2-NORM 
          0                 1           2             5    8     1       0.3043298516E-01       5    8    1         0.1682800708E+01      0.4040463824E+01
          0                 2           2             4    7     1      -0.1863062634E+01       5    8    1        -0.1001682829E+03      0.2451912281E+03
          0                 3           2             4    7     1       0.1268482101E+00       5    8    1         0.7094365562E+01      0.1724015390E+02
          0                 4           2             4    7     1      -0.5047501988E-02       5    8    1        -0.2900765891E+00      0.7158433428E+00
          0                 5           1             4   13     1      -0.8621009214E-04       4   13    1        -0.5216207608E-02      0.1275011095E-01

    ------------------------------------------------
       NWT REQUIRED            5 OUTER ITERATIONS 
       AND A TOTAL OF          9 INNER ITERATIONS.
    ------------------------------------------------

 NO OUTPUT CONTROL FOR STRESS PERIOD   42   TIME STEP    7
 
 SOLVING FOR HEAD 
                                                   Max.-Head-Change                         Max.-Flux-Residual
  Residual-Control   Outer-Iter.   Inner-Iter.     Column Row Layer    Maximum-Head-Change  Column Row Layer    Maximum-Flux-Residual          L2-NORM 
          0                 1           2             5    8     1       0.8230737143E-01       5    8    1         0.4546707762E+01      0.1002875049E+02
          0                 2           2             5    8     1      -0.8006120953E-02       5    8    1        -0.4546609011E+00      0.1029910032E+01
          0                 3           2             5    8     1       0.5451885501E-03       5    8    1         0.3182637060E-01      0.7209406726E-01
          0                 4           1             5    8     1      -0.2169355660E-04       5    8    1        -0.1301699943E-02      0.2948769020E-02

    ------------------------------------------------
       NWT REQUIRED            4 OUTER ITERATIONS 
       AND A TOTAL OF          7 INNER ITERATIONS.
    ------------------------------------------------

 NO OUTPUT CONTROL FOR STRESS PERIOD   42   TIME STEP    8
 
 SOLVING FOR HEAD 
                                                   Max.-Head-Change                         Max.-Flux-Residual
  Residual-Control   Outer-Iter.   Inner-Iter.     Column Row Layer    Maximum-Head-Change  Column Row Layer    Maximum-Flux-Residual          L2-NORM 
          0                 1           2             5    8     1       0.7749264976E-01       5    8    1         0.4277225159E+01      0.9521191243E+01
          0                 2           2             5    8     1      -0.7537796551E-02       5    8    1        -0.4277138129E+00      0.9520841842E+00
          0                 3           2             5    8     1       0.5132972308E-03       5    8    1         0.2994006251E-01      0.6664614416E-01
          0                 4           1             5    8     1      -0.2042457206E-04       5    8    1        -0.1224549882E-02      0.2725826896E-02

    ------------------------------------------------
       NWT REQUIRED            4 OUTER ITERATIONS 
       AND A TOTAL OF          7 INNER ITERATIONS.
    ------------------------------------------------

 NO OUTPUT CONTROL FOR STRESS PERIOD   42   TIME STEP    9
 
 SOLVING FOR HEAD 
                                                   Max.-Head-Change                         Max.-Flux-Residual
  Residual-Control   Outer-Iter.   Inner-Iter.     Column Row Layer    Maximum-Head-Change  Column Row Layer    Maximum-Flux-Residual          L2-NORM 
          0                 1           2             5    8     1       0.7301941005E-01       5    8    1         0.4027019703E+01      0.9051099392E+01
          0                 2           2             5    8     1      -0.7102687083E-02       5    8    1        -0.4026942749E+00      0.9044885616E+00
          0                 3           2             5    8     1       0.4836677485E-03       5    8    1         0.2818868457E-01      0.6331443052E-01
          0                 4           1             5    8     1      -0.1924558772E-04       5    8    1        -0.1152918469E-02      0.2589559859E-02

    ------------------------------------------------
       NWT REQUIRED            4 OUTER ITERATIONS 
       AND A TOTAL OF          7 INNER ITERATIONS.
    ------------------------------------------------

 NO OUTPUT CONTROL FOR STRESS PERIOD   42   TIME STEP   10
 
 SOLVING FOR HEAD 
                                                   Max.-Head-Change                         Max.-Flux-Residual
  Residual-Control   Outer-Iter.   Inner-Iter.     Column Row Layer    Maximum-Head-Change  Column Row Layer    Maximum-Flux-Residual          L2-NORM 
          0                 1           2             5    8     1       0.6886082801E-01       5    8    1         0.3794566881E+01      0.8613080609E+01
          0                 2           2             5    8     1      -0.6698182489E-02       5    8    1        -0.3794498614E+00      0.8612226185E+00
          0                 3           2             5    8     1       0.4561223640E-03       5    8    1         0.2656156672E-01      0.6028578135E-01
          0                 4           1             5    8     1      -0.1814953164E-04       5    8    1        -0.1086369284E-02      0.2465679028E-02

    ------------------------------------------------
       NWT REQUIRED            4 OUTER ITERATIONS 
       AND A TOTAL OF          7 INNER ITERATIONS.
    ------------------------------------------------

 NO OUTPUT CONTROL FOR STRESS PERIOD   42   TIME STEP   11
 
 SOLVING FOR HEAD 
                                                   Max.-Head-Change                         Max.-Flux-Residual
  Residual-Control   Outer-Iter.   Inner-Iter.     Column Row Layer    Maximum-Head-Change  Column Row Layer    Maximum-Flux-Residual          L2-NORM 
          0                 1           2             5    8     1       0.6499200328E-01       5    8    1         0.3578452364E+01      0.8204217318E+01
          0                 2           2             4    7     1      -0.1864609025E+01       5    8    1        -0.1003578391E+03      0.2455439785E+03
          0                 3           2             4    7     1       0.1269537673E+00       5    8    1         0.7022853111E+01      0.1725817829E+02
          0                 4           2             4    7     1      -0.5051701501E-02       5    8    1        -0.2871187556E+00      0.7125345340E+00
          0                 5           1             4    7     1       0.6228951661E-04       4    8    1         0.3631704684E-02      0.1041570516E-01

    ------------------------------------------------
       NWT REQUIRED            5 OUTER ITERATIONS 
       AND A TOTAL OF          9 INNER ITERATIONS.
    ------------------------------------------------

 NO OUTPUT CONTROL FOR STRESS PERIOD   42   TIME STEP   12
 
 SOLVING FOR HEAD 
                                                   Max.-Head-Change                         Max.-Flux-Residual
  Residual-Control   Outer-Iter.   Inner-Iter.     Column Row Layer    Maximum-Head-Change  Column Row Layer    Maximum-Flux-Residual          L2-NORM 
          0                 1           2             5    8     1       0.1154522291E+00       5    8    1         0.6361126324E+01      0.1408924951E+02
          0                 2           2             4    7     1      -0.1865716451E+01       5    8    1        -0.1006360947E+03      0.2459838699E+03
          0                 3           2             4    7     1       0.1270294968E+00       5    8    1         0.7042444301E+01      0.1728949343E+02
          0                 4           2             4    7     1      -0.5054713262E-02       5    8    1        -0.2879314252E+00      0.7138977470E+00
          0                 5           1             4    7     1       0.6232665603E-04       5    6    1         0.3641723787E-02      0.1045235157E-01

    ------------------------------------------------
       NWT REQUIRED            5 OUTER ITERATIONS 
       AND A TOTAL OF          9 INNER ITERATIONS.
    ------------------------------------------------

 NO OUTPUT CONTROL FOR STRESS PERIOD   42   TIME STEP   13
 
 SOLVING FOR HEAD 
                                                   Max.-Head-Change                         Max.-Flux-Residual
  Residual-Control   Outer-Iter.   Inner-Iter.     Column Row Layer    Maximum-Head-Change  Column Row Layer    Maximum-Flux-Residual          L2-NORM 
          0                 1           2             5    8     1       0.1630462535E+00       5    8    1         0.8983303830E+01      0.1970340277E+02
          0                 2           2             4    7     1      -0.1866890725E+01       5    8    1        -0.1008982958E+03      0.2464085564E+03
          0                 3           2             4    7     1       0.1271097539E+00       5    8    1         0.7060904711E+01      0.1731971426E+02
          0                 4           2             4    7     1      -0.5057905299E-02       5    8    1        -0.2886970890E+00      0.7151042003E+00
          0                 5           1             4    7     1       0.6236601748E-04       5    8    1         0.3651952252E-02      0.1045004993E-01

    ------------------------------------------------
       NWT REQUIRED            5 OUTER ITERATIONS 
       AND A TOTAL OF          9 INNER ITERATIONS.
    ------------------------------------------------

 NO OUTPUT CONTROL FOR STRESS PERIOD   42   TIME STEP   14
 
 SOLVING FOR HEAD 
                                                   Max.-Head-Change                         Max.-Flux-Residual
  Residual-Control   Outer-Iter.   Inner-Iter.     Column Row Layer    Maximum-Head-Change  Column Row Layer    Maximum-Flux-Residual          L2-NORM 
          0                 1           2             5    8     1       0.2079774722E+00       5    8    1         0.1145647976E+02      0.2505342030E+02
          0                 2           2             4    7     1      -0.1868124771E+01       5    8    1        -0.1011455927E+03      0.2468187567E+03
          0                 3           2             4    7     1       0.1271940581E+00       5    8    1         0.7078315310E+01      0.1734891108E+02
          0                 4           2             4    7     1      -0.5061258487E-02       5    8    1        -0.2894191105E+00      0.7167708702E+00
          0                 5           1             4    7     1       0.6240736641E-04       5    8    1         0.3661777664E-02      0.1052137375E-01

    ------------------------------------------------
       NWT REQUIRED            5 OUTER ITERATIONS 
       AND A TOTAL OF          9 INNER ITERATIONS.
    ------------------------------------------------

 NO OUTPUT CONTROL FOR STRESS PERIOD   42   TIME STEP   15
 
 SOLVING FOR HEAD 
                                                   Max.-Head-Change                         Max.-Flux-Residual
  Residual-Control   Outer-Iter.   Inner-Iter.     Column Row Layer    Maximum-Head-Change  Column Row Layer    Maximum-Flux-Residual          L2-NORM 
          0                 1           2             5    8     1       0.2504333196E+00       5    8    1         0.1379124020E+02      0.3015276125E+02
          0                 2           2             4    7     1      -0.1869411989E+01       5    8    1        -0.1013790450E+03      0.2472150566E+03
          0                 3           2             4    7     1       0.1272819612E+00       5    8    1         0.7094750665E+01      0.1737712024E+02
          0                 4           2             4    7     1      -0.5064754986E-02       5    8    1        -0.2901005877E+00      0.7179338055E+00
          0                 5           1             4    7     1       0.6245048204E-04       5    8    1         0.3671044770E-02      0.1053208074E-01

    ------------------------------------------------
       NWT REQUIRED            5 OUTER ITERATIONS 
       AND A TOTAL OF          9 INNER ITERATIONS.
    ------------------------------------------------

 NO OUTPUT CONTROL FOR STRESS PERIOD   42   TIME STEP   16
 
 SOLVING FOR HEAD 
                                                   Max.-Head-Change                         Max.-Flux-Residual
  Residual-Control   Outer-Iter.   Inner-Iter.     Column Row Layer    Maximum-Head-Change  Column Row Layer    Maximum-Flux-Residual          L2-NORM 
          0                 1           2             5    8     1       0.2905863847E+00       5    8    1         0.1599732786E+02      0.3501606601E+02
          0                 2           2             4    7     1      -0.1870746220E+01       5    8    1        -0.1015996276E+03      0.2475980234E+03
          0                 3           2             4    7     1       0.1273730451E+00       5    8    1         0.7110279411E+01      0.1740438300E+02
          0                 4           2             4    7     1      -0.5068378148E-02       5    8    1        -0.2907443728E+00      0.7190600812E+00
          0                 5           1             4    7     1       0.6249515938E-04       5    8    1         0.3679792719E-02      0.1054341791E-01

    ------------------------------------------------
       NWT REQUIRED            5 OUTER ITERATIONS 
       AND A TOTAL OF          9 INNER ITERATIONS.
    ------------------------------------------------

 NO OUTPUT CONTROL FOR STRESS PERIOD   42   TIME STEP   17
 
 SOLVING FOR HEAD 
                                                   Max.-Head-Change                         Max.-Flux-Residual
  Residual-Control   Outer-Iter.   Inner-Iter.     Column Row Layer    Maximum-Head-Change  Column Row Layer    Maximum-Flux-Residual          L2-NORM 
          0                 1           2             5    8     1       0.3285952962E+00       5    8    1         0.1808369259E+02      0.3965750274E+02
          0                 2           2             4    7     1      -0.1872121737E+01       5    8    1        -0.1018082361E+03      0.2479682010E+03
          0                 3           2             4    7     1       0.1274669209E+00       5    8    1         0.7124964600E+01      0.1743073488E+02
          0                 4           2             4    7     1      -0.5072112499E-02       5    8    1        -0.2913530866E+00      0.7201504392E+00
          0                 5           1             4    7     1       0.6254120700E-04       5    8    1         0.3688057575E-02      0.1055438594E-01

    ------------------------------------------------
       NWT REQUIRED            5 OUTER ITERATIONS 
       AND A TOTAL OF          9 INNER ITERATIONS.
    ------------------------------------------------

 NO OUTPUT CONTROL FOR STRESS PERIOD   42   TIME STEP   18
 
 SOLVING FOR HEAD 
                                                   Max.-Head-Change                         Max.-Flux-Residual
  Residual-Control   Outer-Iter.   Inner-Iter.     Column Row Layer    Maximum-Head-Change  Column Row Layer    Maximum-Flux-Residual          L2-NORM 
          0                 1           2             5    8     1       0.3646066427E+00       5    8    1         0.2005859904E+02      0.4409053737E+02
          0                 2           2             4    7     1      -0.1873534348E+01       5    8    1        -0.1020037854E+03      0.2483260943E+03
          0                 3           2             4    7     1       0.1275633045E+00       5    8    1         0.7138730729E+01      0.1745620954E+02
          0                 4           2             4    7     1      -0.5075946730E-02       5    8    1        -0.2919236794E+00      0.7212059920E+00
          0                 5           1             4    7     1       0.6258848667E-04       5    8    1         0.3695803295E-02      0.1056594927E-01

    ------------------------------------------------
       NWT REQUIRED            5 OUTER ITERATIONS 
       AND A TOTAL OF          9 INNER ITERATIONS.
    ------------------------------------------------

 NO OUTPUT CONTROL FOR STRESS PERIOD   42   TIME STEP   19
 
 SOLVING FOR HEAD 
                                                   Max.-Head-Change                         Max.-Flux-Residual
  Residual-Control   Outer-Iter.   Inner-Iter.     Column Row Layer    Maximum-Head-Change  Column Row Layer    Maximum-Flux-Residual          L2-NORM 
          0                 1           2             5    8     1       0.3988943472E+00       5    8    1         0.2193192706E+02      0.4832947334E+02
          0                 2           2             4    7     1      -0.1874975741E+01       5    8    1        -0.1021930465E+03      0.2486722759E+03
          0                 3           2             4    7     1       0.1276616309E+00       5    8    1         0.7152051457E+01      0.1748085066E+02
          0                 4           2             4    7     1      -0.5079858341E-02       5    8    1        -0.2924755641E+00      0.7222282244E+00
          0                 5           1             4    7     1       0.6263672004E-04       5    8    1         0.3703278440E-02      0.1057703869E-01

    ------------------------------------------------
       NWT REQUIRED            5 OUTER ITERATIONS 
       AND A TOTAL OF          9 INNER ITERATIONS.
    ------------------------------------------------

 NO OUTPUT CONTROL FOR STRESS PERIOD   42   TIME STEP   20
 
 SOLVING FOR HEAD 
                                                   Max.-Head-Change                         Max.-Flux-Residual
  Residual-Control   Outer-Iter.   Inner-Iter.     Column Row Layer    Maximum-Head-Change  Column Row Layer    Maximum-Flux-Residual          L2-NORM 
          0                 1           2             5    8     1       0.4314141752E+00       5    8    1         0.2371202919E+02      0.5238530652E+02
          0                 2           2             4    7     1      -0.1876633932E+01       5    8    1        -0.1023710314E+03      0.2490071349E+03
          0                 3           2             4    7     1       0.1277746587E+00       5    8    1         0.7164580980E+01      0.1750468083E+02
          0                 4           2             4    7     1      -0.5084355236E-02       5    8    1        -0.2929948880E+00      0.7232176002E+00
          0                 5           1             4    7     1       0.6269217018E-04       5    8    1         0.3710327438E-02      0.1058730104E-01

    ------------------------------------------------
       NWT REQUIRED            5 OUTER ITERATIONS 
       AND A TOTAL OF          9 INNER ITERATIONS.
    ------------------------------------------------

 NO OUTPUT CONTROL FOR STRESS PERIOD   42   TIME STEP   21
 
 SOLVING FOR HEAD 
                                                   Max.-Head-Change                         Max.-Flux-Residual
  Residual-Control   Outer-Iter.   Inner-Iter.     Column Row Layer    Maximum-Head-Change  Column Row Layer    Maximum-Flux-Residual          L2-NORM 
          0                 1           2             5    8     1       0.4623203029E+00       5    8    1         0.2540176979E+02      0.5626832098E+02
          0                 2           2             4    7     1      -0.1877925950E+01       5    8    1        -0.1025399794E+03      0.2493311974E+03
          0                 3           2             4    7     1       0.1278628287E+00       5    8    1         0.7176469458E+01      0.1752773458E+02
          0                 4           2             4    7     1      -0.5087862671E-02       5    8    1        -0.2934870632E+00      0.7241749995E+00
          0                 5           1             4    7     1       0.6273542034E-04       5    8    1         0.3716969328E-02      0.1059828956E-01

    ------------------------------------------------
       NWT REQUIRED            5 OUTER ITERATIONS 
       AND A TOTAL OF          9 INNER ITERATIONS.
    ------------------------------------------------

 NO OUTPUT CONTROL FOR STRESS PERIOD   42   TIME STEP   22
 
 SOLVING FOR HEAD 
                                                   Max.-Head-Change                         Max.-Flux-Residual
  Residual-Control   Outer-Iter.   Inner-Iter.     Column Row Layer    Maximum-Head-Change  Column Row Layer    Maximum-Flux-Residual          L2-NORM 
          0                 1           2             5    8     1       0.4917070508E+00       5    8    1         0.2700721716E+02      0.5998814746E+02
          0                 2           2             4    7     1      -0.1879407630E+01       5    8    1        -0.1027004974E+03      0.2496448862E+03
          0                 3           2             4    7     1       0.1279638592E+00       5    8    1         0.7187765647E+01      0.1755004165E+02
          0                 4           2             4    7     1      -0.5091882122E-02       5    8    1        -0.2939548075E+00      0.7250861132E+00
          0                 5           1             4    7     1       0.6278498265E-04       5    8    1         0.3723287553E-02      0.1056828247E-01

    ------------------------------------------------
       NWT REQUIRED            5 OUTER ITERATIONS 
       AND A TOTAL OF          9 INNER ITERATIONS.
    ------------------------------------------------

 NO OUTPUT CONTROL FOR STRESS PERIOD   42   TIME STEP   23
 
 SOLVING FOR HEAD 
                                                   Max.-Head-Change                         Max.-Flux-Residual
  Residual-Control   Outer-Iter.   Inner-Iter.     Column Row Layer    Maximum-Head-Change  Column Row Layer    Maximum-Flux-Residual          L2-NORM 
          0                 1           2             5    8     1       0.5742848784E+00       5    8    1         0.3154511169E+02      0.6496163817E+02
          0                 2           2             4    7     1      -0.1880757788E+01       5    6    1        -0.1027551504E+03      0.2420050303E+03
          0                 3           2             5    8     1      -0.3274954427E+00       5    8    1        -0.1877105527E+02      0.2468335617E+02
          0                 4           2             5    8     1       0.2229511753E-01       5    8    1         0.1307606946E+01      0.1469472713E+01
          0                 5           1             5    8     1      -0.8873935929E-03       5    8    1        -0.5325075638E-01      0.5429838952E-01
          0                 6           1             5    8     1       0.1095001537E-04       5    8    1         0.6713006360E-03      0.7031049016E-03

    ------------------------------------------------
       NWT REQUIRED            6 OUTER ITERATIONS 
       AND A TOTAL OF         10 INNER ITERATIONS.
    ------------------------------------------------

 NO OUTPUT CONTROL FOR STRESS PERIOD   42   TIME STEP   24
 
 SOLVING FOR HEAD 
                                                   Max.-Head-Change                         Max.-Flux-Residual
  Residual-Control   Outer-Iter.   Inner-Iter.     Column Row Layer    Maximum-Head-Change  Column Row Layer    Maximum-Flux-Residual          L2-NORM 
          0                 1           2             5    8     1       0.1688380879E+01       5    8    1         0.9295660566E+02      0.1105765712E+03
          0                 2           2             4    7     1      -0.1882020437E+01       5    6    1        -0.1028981108E+03      0.2326832861E+03
          0                 3           2             5    8     1      -0.5109477534E+00       5    8    1        -0.2917475966E+02      0.3329629166E+02
          0                 4           2             5    8     1      -0.3013529265E+00       5    8    1        -0.1707400884E+02      0.1708733304E+02
          0                 5           2             5    8     1      -0.1777361090E+00       5    8    1        -0.1007454671E+02      0.1007456533E+02
          0                 6           2             5    8     1      -0.1048285253E+00       5    8    1        -0.5941690373E+01      0.5941704291E+01
          0                 7           2             5    8     1      -0.6182784080E-01       5    8    1        -0.3504324097E+01      0.3504332262E+01
          0                 8           2             5    8     1      -0.3646598908E-01       5    8    1        -0.2066809066E+01      0.2066813893E+01
          0                 9           2             5    8     1      -0.2150752084E-01       5    8    1        -0.1218979589E+01      0.1218982439E+01
          0                10           2             5    8     1      -0.1268500456E-01       5    8    1        -0.7189378373E+00      0.7189395197E+00
                                                   Max.-Head-Change                         Max.-Flux-Residual
  Residual-Control   Outer-Iter.   Inner-Iter.     Column Row Layer    Maximum-Head-Change  Column Row Layer    Maximum-Flux-Residual          L2-NORM 
          0                11           2             5    8     1      -0.7481497208E-02       5    8    1        -0.4240181051E+00      0.4240190977E+00
          0                12           1             5    8     1      -0.4412491121E-02       5    8    1        -0.2500778422E+00      0.2500784278E+00
          0                13           1             5    8     1      -0.2602414682E-02       5    8    1        -0.1474903283E+00      0.1474906737E+00
          0                14           1             5    8     1      -0.1534851714E-02       5    8    1        -0.8698597763E-01      0.8698618136E-01
          0                15           1             5    8     1      -0.9052188242E-03       5    8    1        -0.5130175832E-01      0.5130187848E-01
          0                16           1             5    8     1      -0.5338729761E-03       5    8    1        -0.3025606877E-01      0.3025613964E-01
          0                17           1             5    8     1      -0.3148614527E-03       5    8    1        -0.1784390758E-01      0.1784394937E-01
          0                18           1             5    8     1      -0.1856941577E-03       5    8    1        -0.1052360729E-01      0.1052363194E-01
          0                19           1             5    8     1      -0.1095151414E-03       5    8    1        -0.6206353260E-02      0.6206367804E-02
          0                20           1             5    8     1      -0.6458732182E-04       5    8    1        -0.3660206061E-02      0.3660214648E-02

    ------------------------------------------------
       NWT REQUIRED           20 OUTER ITERATIONS 
       AND A TOTAL OF         31 INNER ITERATIONS.
    ------------------------------------------------

 NO OUTPUT CONTROL FOR STRESS PERIOD   42   TIME STEP   25
 
 SOLVING FOR HEAD 
                                                   Max.-Head-Change                         Max.-Flux-Residual
  Residual-Control   Outer-Iter.   Inner-Iter.     Column Row Layer    Maximum-Head-Change  Column Row Layer    Maximum-Flux-Residual          L2-NORM 
          0                 1           2             5    8     1       0.2441502611E+01       5    8    1         0.1344292634E+03      0.1484579655E+03
          0                 2           2             4    7     1      -0.1883434211E+01       5    6    1        -0.1030355427E+03      0.2294340604E+03
          0                 3           2             5    8     1      -0.2612272183E+00       5    8    1        -0.1502068094E+02      0.2199542776E+02
          0                 4           2             5    8     1      -0.1540284820E+00       5    8    1        -0.8724616281E+01      0.8750348253E+01
          0                 5           2             5    8     1      -0.9081965954E-01       5    8    1        -0.5149155864E+01      0.5149167770E+01
          0                 6           2             5    8     1      -0.5354997259E-01       5    8    1        -0.3035966676E+01      0.3035973988E+01
          0                 7           2             5    8     1      -0.3157458536E-01       5    8    1        -0.1790062755E+01      0.1790066997E+01
          0                 8           2             5    8     1      -0.1861719828E-01       5    8    1        -0.1055453105E+01      0.1055455609E+01
          0                 9           2             5    8     1      -0.1097713006E-01       5    8    1        -0.6223120864E+00      0.6223135640E+00
          0                10           1             5    8     1      -0.6472332936E-02       5    8    1        -0.3669235181E+00      0.3669243896E+00
                                                   Max.-Head-Change                         Max.-Flux-Residual
  Residual-Control   Outer-Iter.   Inner-Iter.     Column Row Layer    Maximum-Head-Change  Column Row Layer    Maximum-Flux-Residual          L2-NORM 
          0                11           1             5    8     1      -0.3816192619E-02       5    8    1        -0.2163418478E+00      0.2163423617E+00
          0                12           1             5    8     1      -0.2250075196E-02       5    8    1        -0.1275566160E+00      0.1275569190E+00
          0                13           1             5    8     1      -0.1326664261E-02       5    8    1        -0.7520778385E-01      0.7520796255E-01
          0                14           1             5    8     1      -0.7822079903E-03       5    8    1        -0.4434246899E-01      0.4434257435E-01
          0                15           1             5    8     1      -0.4611908354E-03       5    8    1        -0.2614412948E-01      0.2614419161E-01
          0                16           1             5    8     1      -0.2719169497E-03       5    8    1        -0.1541436757E-01      0.1541440420E-01
          0                17           1             5    8     1      -0.1603205062E-03       5    8    1        -0.9088127942E-02      0.9088149537E-02
          0                18           1             5    8     1      -0.9452333851E-04       5    8    1        -0.5358217531E-02      0.5358230263E-02

    ------------------------------------------------
       NWT REQUIRED           18 OUTER ITERATIONS 
       AND A TOTAL OF         27 INNER ITERATIONS.
    ------------------------------------------------

 NO OUTPUT CONTROL FOR STRESS PERIOD   42   TIME STEP   26
 
 SOLVING FOR HEAD 
                                                   Max.-Head-Change                         Max.-Flux-Residual
  Residual-Control   Outer-Iter.   Inner-Iter.     Column Row Layer    Maximum-Head-Change  Column Row Layer    Maximum-Flux-Residual          L2-NORM 
          0                 1           2             5    8     1       0.2309108161E+01       5    8    1         0.1269051010E+03      0.1509620986E+03
          0                 2           2             4    7     1      -0.1879506150E+01       4    6    1        -0.1023723375E+03      0.2065438468E+03
          0                 3           2             5    6     1      -0.7407545315E+00       5    6    1        -0.4213915108E+02      0.5312462640E+02
          0                 4           2             5    8     1      -0.1826563473E+00       5    8    1        -0.1037994630E+02      0.1261527797E+02
          0                 5           2             5    8     1      -0.1076739834E+00       5    8    1        -0.6104999547E+01      0.6124835964E+01
          0                 6           2             5    8     1      -0.6347271436E-01       5    8    1        -0.3599308983E+01      0.3599371068E+01
          0                 7           2             5    8     1      -0.3741646457E-01       5    8    1        -0.2121707031E+01      0.2121712153E+01
          0                 8           2             5    8     1      -0.2205651484E-01       5    8    1        -0.1250700301E+01      0.1250703303E+01
          0                 9           2             5    8     1      -0.1300196419E-01       5    8    1        -0.7372587375E+00      0.7372605086E+00
          0                10           2             5    8     1      -0.7664408825E-02       5    8    1        -0.4345950502E+00      0.4345960946E+00
                                                   Max.-Head-Change                         Max.-Flux-Residual
  Residual-Control   Outer-Iter.   Inner-Iter.     Column Row Layer    Maximum-Head-Change  Column Row Layer    Maximum-Flux-Residual          L2-NORM 
          0                11           1             5    8     1      -0.4517995529E-02       5    8    1        -0.2561812766E+00      0.2561818924E+00
          0                12           1             5    8     1      -0.2663239727E-02       5    8    1        -0.1510106288E+00      0.1510109919E+00
          0                13           1             5    8     1      -0.1569900000E-02       5    8    1        -0.8901537482E-01      0.8901558884E-01
          0                14           1             5    8     1      -0.9254030915E-03       5    8    1        -0.5247105879E-01      0.5247118496E-01
          0                15           1             5    8     1      -0.5454903950E-03       5    8    1        -0.3092942707E-01      0.3092950144E-01
          0                16           1             5    8     1      -0.3215440386E-03       5    8    1        -0.1823144695E-01      0.1823149079E-01
          0                17           1             5    8     1      -0.1895356899E-03       5    8    1        -0.1074651376E-01      0.1074653960E-01
          0                18           1             5    8     1      -0.1117220046E-03       5    8    1        -0.6334484068E-02      0.6334499299E-02
          0                19           1             5    8     1      -0.6585422056E-04       5    8    1        -0.3733808832E-02      0.3733817820E-02

    ------------------------------------------------
       NWT REQUIRED           19 OUTER ITERATIONS 
       AND A TOTAL OF         29 INNER ITERATIONS.
    ------------------------------------------------

 NO OUTPUT CONTROL FOR STRESS PERIOD   42   TIME STEP   27
 
 SOLVING FOR HEAD 
                                                   Max.-Head-Change                         Max.-Flux-Residual
  Residual-Control   Outer-Iter.   Inner-Iter.     Column Row Layer    Maximum-Head-Change  Column Row Layer    Maximum-Flux-Residual          L2-NORM 
          0                 1           2             5    8     1       0.2224274351E+01       5    8    1         0.1206182047E+03      0.2106207469E+03
          0                 2           2             4    6     1      -0.1863082567E+01       4    6    1        -0.1024752723E+03      0.1671754469E+03
          0                 3           2             5    7     1      -0.6272539263E+00       5    7    1        -0.3507327528E+02      0.5332365155E+02
          0                 4           2             5    7     1      -0.3769725754E+00       5    7    1        -0.2100825079E+02      0.3119931251E+02
          0                 5           2             5    7     1      -0.2266351520E+00       5    7    1        -0.1262768897E+02      0.1854867116E+02
          0                 6           2             5    7     1      -0.1363044471E+00       5    7    1        -0.7591824309E+01      0.1123842168E+02
          0                 7           2             5    7     1      -0.8200696770E-01       5    7    1        -0.4566005153E+01      0.6819390326E+01
          0                 8           2             5    7     1      -0.4935633026E-01       5    7    1        -0.2747167110E+01      0.4138736087E+01
          0                 9           2             4    8     1      -0.2288813655E-01       4    8    1        -0.1260388328E+01      0.1893520339E+01
          0                10           2             4    8     1      -0.1393912178E-01       4    8    1        -0.7677011963E+00      0.1137630900E+01
                                                   Max.-Head-Change                         Max.-Flux-Residual
  Residual-Control   Outer-Iter.   Inner-Iter.     Column Row Layer    Maximum-Head-Change  Column Row Layer    Maximum-Flux-Residual          L2-NORM 
          0                11           2             4    8     1      -0.8487695823E-02       4    8    1        -0.4675229269E+00      0.6850007035E+00
          0                12           2             4    8     1      -0.5167452582E-02       4    8    1        -0.2846711866E+00      0.4125724225E+00
          0                13           2             4    8     1      -0.3145562150E-02       4    8    1        -0.1733072615E+00      0.2485645477E+00
          0                14           2             4    8     1      -0.1914510648E-02       4    8    1        -0.1054934281E+00      0.1497971740E+00
          0                15           2             4    8     1      -0.1165084971E-02       4    8    1        -0.6420547900E-01      0.9030035882E-01
          0                16           2             4    8     1      -0.7089247697E-03       4    8    1        -0.3907143370E-01      0.5444935491E-01
          0                17           2             4    8     1      -0.4313082492E-03       4    8    1        -0.2377330698E-01      0.3284047360E-01
          0                18           2             4    8     1      -0.2623751258E-03       4    8    1        -0.1446322539E-01      0.1981232861E-01
          0                19           2             4    8     1      -0.1595904690E-03       4    8    1        -0.8798086355E-02      0.1195548318E-01
          0                20           1             4    8     1      -0.9706059715E-04       4    8    1        -0.5351319741E-02      0.7216063483E-02

    ------------------------------------------------
       NWT REQUIRED           20 OUTER ITERATIONS 
       AND A TOTAL OF         39 INNER ITERATIONS.
    ------------------------------------------------

 NO OUTPUT CONTROL FOR STRESS PERIOD   42   TIME STEP   28
 
 SOLVING FOR HEAD 
                                                   Max.-Head-Change                         Max.-Flux-Residual
  Residual-Control   Outer-Iter.   Inner-Iter.     Column Row Layer    Maximum-Head-Change  Column Row Layer    Maximum-Flux-Residual          L2-NORM 
          0                 1           2             5    7     1       0.2508844639E+01       5    7    1         0.1345607291E+03      0.2641992950E+03
          0                 2           2             4    7     1      -0.1845054571E+01       4    7    1        -0.1013608250E+03      0.1394236866E+03
          0                 3           2             5    8     1      -0.3305642169E+00       5    8    1        -0.1835529021E+02      0.3395727758E+02
          0                 4           2             5    8     1      -0.1995703783E+00       5    8    1        -0.1107815349E+02      0.1827943537E+02
          0                 5           2             5    8     1      -0.1205356202E+00       5    8    1        -0.6688297096E+01      0.1107623724E+02
          0                 6           2             5    8     1      -0.7282918562E-01       5    8    1        -0.4039670580E+01      0.6725311731E+01
          0                 7           2             5    8     1      -0.4402084667E-01       5    8    1        -0.2440880334E+01      0.4084185504E+01
          0                 8           2             5    8     1      -0.2661747222E-01       5    8    1        -0.1475398761E+01      0.2480674803E+01
          0                 9           2             5    8     1      -0.1609991658E-01       5    8    1        -0.8921281105E+00      0.1506949590E+01
          0                10           2             5    8     1      -0.9741414767E-02       5    8    1        -0.5396259147E+00      0.9155587848E+00
                                                   Max.-Head-Change                         Max.-Flux-Residual
  Residual-Control   Outer-Iter.   Inner-Iter.     Column Row Layer    Maximum-Head-Change  Column Row Layer    Maximum-Flux-Residual          L2-NORM 
          0                11           2             5    8     1      -0.5895972920E-02       5    8    1        -0.3265121283E+00      0.5563230913E+00
          0                12           2             5    8     1      -0.3569584257E-02       5    8    1        -0.1976242474E+00      0.3380777127E+00
          0                13           2             5    8     1      -0.2161734768E-02       5    8    1        -0.1196490399E+00      0.2054709018E+00
          0                14           2             5    8     1      -0.1309495195E-02       5    8    1        -0.7246031212E-01      0.1248891148E+00
          0                15           2             5    8     1      -0.7934443598E-03       5    8    1        -0.4389421774E-01      0.7591644051E-01
          0                16           2             5    8     1      -0.4808777228E-03       5    8    1        -0.2659652592E-01      0.4615097951E-01
          0                17           2             5    8     1      -0.2915098328E-03       5    8    1        -0.1611935139E-01      0.2805801804E-01
          0                18           2             5    8     1      -0.1767531208E-03       5    8    1        -0.9771698149E-02      0.1705930963E-01
          0                19           1             5    8     1      -0.1071942459E-03       5    8    1        -0.5924986101E-02      0.1037270350E-01
          0                20           1             5    8     1      -0.6502220877E-04       5    8    1        -0.3593309568E-02      0.6307342222E-02

    ------------------------------------------------
       NWT REQUIRED           20 OUTER ITERATIONS 
       AND A TOTAL OF         38 INNER ITERATIONS.
    ------------------------------------------------

 NO OUTPUT CONTROL FOR STRESS PERIOD   42   TIME STEP   29
 
 SOLVING FOR HEAD 
                                                   Max.-Head-Change                         Max.-Flux-Residual
  Residual-Control   Outer-Iter.   Inner-Iter.     Column Row Layer    Maximum-Head-Change  Column Row Layer    Maximum-Flux-Residual          L2-NORM 
          0                 1           2             5    7     1       0.2459228540E+01       5    7    1         0.1314623677E+03      0.2743176131E+03
          0                 2           2             4    7     1      -0.1317130566E+01       4    7    1        -0.7233358026E+02      0.9893508210E+02
          0                 3           2             4    7     1      -0.8054345126E+00       4    7    1        -0.4420120307E+02      0.6086343123E+02
          0                 4           2             4    6     1      -0.3108382178E+00       4    6    1        -0.1723727109E+02      0.2603915753E+02
          0                 5           2             4    6     1      -0.1876114147E+00       4    6    1        -0.1041876082E+02      0.1581294754E+02
          0                 6           2             4    6     1      -0.1132633267E+00       4    6    1        -0.6287210233E+01      0.9614812794E+01
          0                 7           2             4    6     1      -0.6839422533E-01       4    6    1        -0.3795770496E+01      0.5848441347E+01
          0                 8           2             4    6     1      -0.4130887097E-01       4    6    1        -0.2292089114E+01      0.3544793092E+01
          0                 9           2             4    6     1      -0.2495463449E-01       4    6    1        -0.1384388361E+01      0.2136352565E+01
          0                10           2             4    6     1      -0.1507773015E-01       4    6    1        -0.8363104053E+00      0.1288861453E+01
                                                   Max.-Head-Change                         Max.-Flux-Residual
  Residual-Control   Outer-Iter.   Inner-Iter.     Column Row Layer    Maximum-Head-Change  Column Row Layer    Maximum-Flux-Residual          L2-NORM 
          0                11           2             4    6     1      -0.9111532385E-02       4    6    1        -0.5053048117E+00      0.7782363224E+00
          0                12           2             4    6     1      -0.5506961257E-02       4    6    1        -0.3053581768E+00      0.4702435053E+00
          0                13           2             4    6     1      -0.3328838422E-02       4    6    1        -0.1845569122E+00      0.2843058515E+00
          0                14           2             4    6     1      -0.2012467684E-02       4    6    1        -0.1115605632E+00      0.1719712290E+00
          0                15           2             4    6     1      -0.1216792240E-02       4    6    1        -0.6744443804E-01      0.1040629638E+00
          0                16           2             4    6     1      -0.7357858571E-03       4    6    1        -0.4077861626E-01      0.6299079059E-01
          0                17           2             4    6     1      -0.4449696843E-03       4    6    1        -0.2465845905E-01      0.3813940956E-01
          0                18           2             4    6     1      -0.2691226085E-03       4    6    1        -0.1491224435E-01      0.2309760628E-01
          0                19           2             4    6     1      -0.1627825203E-03       4    6    1        -0.9019044598E-02      0.1399071213E-01
          0                20           1             4    6     1      -0.9846932023E-04       4    6    1        -0.5455261603E-02      0.8475771598E-02

    ------------------------------------------------
       NWT REQUIRED           20 OUTER ITERATIONS 
       AND A TOTAL OF         39 INNER ITERATIONS.
    ------------------------------------------------

 NO OUTPUT CONTROL FOR STRESS PERIOD   42   TIME STEP   30



 STREAM LISTING     PERIOD     42   STEP       30

 LAYER ROW COL. STREAM  RCH.  FLOW INTO     FLOW TO   FLOW OUT OF   OVRLND.     DIRECT     STREAM       STREAM     STREAM     STREAM   STREAMBED  STREAMBED
                SEG.NO.  NO.  STRM. RCH.    AQUIFER    STRM. RCH.    RUNOFF     PRECIP       ET          HEAD       DEPTH      WIDTH   CONDCTNC.   GRADIENT

   1    1    1     1     1    4.7249E+01  3.2762E-01   4.6921E+01  0.000E+00  0.000E+00  0.000E+00  1.09443E+03  1.381E+00  1.662E+01  7.477E-02  1.460E+00
   1    2    2     1     2    4.6921E+01  5.0759E-01   4.6413E+01  0.000E+00  0.000E+00  0.000E+00  1.08944E+03  1.379E+00  1.656E+01  1.159E-01  1.460E+00
   1    3    3     1     3    4.6413E+01  4.3309E-01   4.5980E+01  0.000E+00  0.000E+00  0.000E+00  1.08379E+03  1.376E+00  1.650E+01  9.898E-02  1.459E+00
   1    3    4     1     4    4.5980E+01  3.9899E-01   4.5581E+01  0.000E+00  0.000E+00  0.000E+00  1.07878E+03  1.373E+00  1.644E+01  9.124E-02  1.458E+00
   1    4    5     2     1    4.3581E+01  3.6514E-01   4.3216E+01  0.000E+00  0.000E+00  0.000E+00  1.07362E+03  1.681E+00  1.200E+01  7.800E-02  1.560E+00
   1    5    6     2     2    4.3216E+01  2.8042E-01   4.2936E+01  0.000E+00  0.000E+00  0.000E+00  1.06818E+03  1.674E+00  1.200E+01  6.000E-02  1.558E+00
   1    6    6     2     3    4.2936E+01  2.8003E-01   4.2656E+01  0.000E+00  0.000E+00  0.000E+00  1.06346E+03  1.667E+00  1.200E+01  6.000E-02  1.556E+00
   1    7    6     2     4    4.2656E+01  2.7964E-01   4.2376E+01  0.000E+00  0.000E+00  0.000E+00  1.05874E+03  1.661E+00  1.200E+01  6.000E-02  1.554E+00
   1    8    6     2     5    4.2376E+01  2.7924E-01   4.2097E+01  0.000E+00  0.000E+00  0.000E+00  1.05401E+03  1.654E+00  1.200E+01  6.000E-02  1.551E+00
   1    3    5     3     1    2.0000E+00  2.8252E-01   1.7175E+00  0.000E+00  0.000E+00  0.000E+00  1.07555E+03  1.909E+00  9.636E+00  7.227E-02  1.955E+00
   1    3    6     3     2    1.7175E+00  2.4905E-01   1.4684E+00  0.000E+00  0.000E+00  0.000E+00  1.07264E+03  1.727E+00  8.909E+00  6.682E-02  1.864E+00
   1    3    7     3     3    1.4684E+00  1.9718E-01   1.2712E+00  0.000E+00  0.000E+00  0.000E+00  1.06987E+03  1.555E+00  8.218E+00  5.547E-02  1.777E+00
   1    4    8     3     4    1.2712E+00  2.2567E-01   1.0456E+00  0.000E+00  0.000E+00  0.000E+00  1.06682E+03  1.364E+00  7.455E+00  6.709E-02  1.682E+00
   1    5    8     3     5    1.0456E+00  1.5790E-01   8.8768E-01  0.000E+00  0.000E+00  0.000E+00  1.06362E+03  1.164E+00  6.655E+00  4.991E-02  1.582E+00
   1    6    8     3     6    8.8768E-01  5.5980E-02   8.3170E-01  0.000E+00  0.000E+00  0.000E+00  1.06158E+03  1.036E+00  6.145E+00  1.844E-02  1.518E+00
   1    5   10     4     1    1.0000E+01  9.0919E-02   9.9091E+00  0.000E+00  0.000E+00  0.000E+00  1.07836E+03  6.368E-01  1.000E+01  2.500E-02  1.212E+00
   1    5    9     4     2    9.9091E+00  1.8158E-01   9.7275E+00  0.000E+00  0.000E+00  0.000E+00  1.07154E+03  6.315E-01  1.000E+01  5.000E-02  1.211E+00
   1    6    8     4     3    9.7275E+00  1.2689E-01   9.6006E+00  0.000E+00  0.000E+00  0.000E+00  1.06381E+03  6.256E-01  1.000E+01  3.500E-02  1.209E+00
   1    6    8     5     1    1.0432E+01  2.2686E-01   1.0205E+01  0.000E+00  0.000E+00  0.000E+00  1.05868E+03  6.790E-01  1.542E+01  6.166E-02  1.226E+00
   1    7    7     5     2    1.0205E+01  2.7894E-01   9.9265E+00  0.000E+00  0.000E+00  0.000E+00  1.05417E+03  6.732E-01  1.519E+01  7.594E-02  1.224E+00
   1    8    7     5     3    9.9265E+00  1.9221E-01   9.7343E+00  0.000E+00  0.000E+00  0.000E+00  1.04992E+03  6.676E-01  1.497E+01  5.241E-02  1.223E+00
   1    8    6     5     4    9.7343E+00  1.3577E-01   9.5985E+00  0.000E+00  0.000E+00  0.000E+00  1.04691E+03  6.637E-01  1.482E+01  3.706E-02  1.221E+00
   1    9    6     6     1    9.5985E+00  2.2097E-01   9.3776E+00  0.000E+00  0.000E+00  0.000E+00  1.04341E+03  6.828E-01  1.200E+01  6.000E-02  1.228E+00
   1   10    7     6     2    9.3776E+00  2.2039E-01   9.1572E+00  0.000E+00  0.000E+00  0.000E+00  1.03885E+03  6.732E-01  1.200E+01  6.000E-02  1.224E+00
   1   11    7     6     3    9.1572E+00  2.1981E-01   8.9374E+00  0.000E+00  0.000E+00  0.000E+00  1.03430E+03  6.636E-01  1.200E+01  6.000E-02  1.221E+00
   1   12    7     6     4    8.9374E+00  2.1923E-01   8.7181E+00  0.000E+00  0.000E+00  0.000E+00  1.02974E+03  6.539E-01  1.200E+01  6.000E-02  1.218E+00
   1   13    7     6     5    8.7181E+00 -5.3490E-02   8.7716E+00  0.000E+00  0.000E+00  0.000E+00  1.02656E+03  6.502E-01  1.200E+01  2.400E-01 -7.429E-02
   1   14    9     7     1    1.5000E+02  1.3752E+00   1.4862E+02  0.000E+00  0.000E+00  0.000E+00  1.03987E+03  2.288E+00  5.529E+01  5.593E-01  8.196E-01
   1   13    8     7     2    1.4862E+02  1.9431E+00   1.4668E+02  0.000E+00  0.000E+00  0.000E+00  1.03478E+03  2.279E+00  5.525E+01  6.147E-01  1.054E+00
   1   13    7     7     3    1.4668E+02  1.6230E+00   1.4506E+02  0.000E+00  0.000E+00  0.000E+00  1.02969E+03  2.269E+00  5.521E+01  5.584E-01  9.688E-01
   1   13    6     8     1    1.5383E+02  9.5694E-01   1.5287E+02  0.000E+00  0.000E+00  0.000E+00  1.02472E+03  2.840E+00  4.118E+01  4.197E-01  7.601E-01
   1   13    5     8     2    1.5287E+02  2.0817E-01   1.5267E+02  0.000E+00  0.000E+00  0.000E+00  1.01846E+03  2.836E+00  4.113E+01  4.191E-01  1.656E-01
   1   13    4     8     3    1.5267E+02 -2.3909E+00   1.5506E+02  0.000E+00  0.000E+00  0.000E+00  1.01222E+03  2.844E+00  4.124E+01  4.202E+00 -1.897E-01
   1   13    3     8     4    1.5506E+02 -3.6885E+00   1.5874E+02  0.000E+00  0.000E+00  0.000E+00  1.00599E+03  2.865E+00  4.154E+01  4.233E+00 -2.905E-01
   1   13    2     8     5    1.5874E+02 -2.7514E+00   1.6150E+02  0.000E+00  0.000E+00  0.000E+00  9.99762E+02  2.887E+00  4.186E+01  4.265E+00 -2.150E-01
   1   13    1     8     6    1.6150E+02 -2.1785E+00   1.6367E+02  0.000E+00  0.000E+00  0.000E+00  9.94778E+02  2.903E+00  4.210E+01  2.574E+00 -2.821E-01
   1    8    6     9     1    4.2097E+01  0.0000E+00   4.2097E+01  0.000E+00  0.000E+00  0.000E+00  1.08412E+03  5.368E+00  4.000E+00  0.000E+00  2.789E+00
   1    8    5     9     2    4.2097E+01  0.0000E+00   4.2097E+01  0.000E+00  0.000E+00  0.000E+00  1.08362E+03  5.368E+00  4.000E+00  0.000E+00  2.789E+00





UNSATURATED ZONE PACKAGE VOLUMETRIC BUDGET FOR  TIME STEP    30 STRESS PERIOD   42
  ------------------------------------------------------------------------------



     CUMULATIVE VOLUMES      L**3       RATES FOR THIS TIME STEP      L**3/T
     ------------------                 ------------------------

           IN:                                      IN:
           ---                                      ---
        INFILTRATION = 10952796421.7688          INFILTRATION =         642.9451

          OUT:                                     OUT:
          ----                                     ----
              UZF ET =  1317488177.5992                UZF ET =           8.3175
        UZF RECHARGE =  8268251829.6732          UZF RECHARGE =         639.6940

            IN - OUT =  1367056414.4963              IN - OUT =          -5.0663

          STORAGE:                                 STORAGE:
          --------                                 --------
      STORAGE CHANGE =  1368475007.0887        STORAGE CHANGE =          -5.0663

 PERCENT DISCREPANCY IS DIFFERENCE BETWEEN IN-OUT MINUS CHANGE IN STORAGE
 DIVIDED BY THE AVERAGE OF IN AND OUT TIMES 100

 PERCENT DISCREPANCY =          -0.00     PERCENT DISCREPANCY =          -0.00






1
  VOLUMETRIC BUDGET FOR AGRICULTURAL FIELDS AT  END OF TIME STEP   30, STRESS PERIOD  42
  ------------------------------------------------------------------------------

     CUMULATIVE VOLUMES      L**3       RATES FOR THIS TIME STEP      L**3/T
     ------------------                 ------------------------

           IN:                                      IN:
           ---                                      ---
               AG WELLS  =  9831563264.0000                 AG WELLS  =         600.0000
      DIVERSION SEGMENTS =  1029786688.0000        DIVERSION SEGMENTS =          42.0968
       IRRIGATION PONDS  =           0.0000         IRRIGATION PONDS  =           0.0000
           GW IRRIGATION =           0.0000             GW IRRIGATION =           0.0000
           SW IRRIGATION =           0.0000             SW IRRIGATION =           0.0000
        SYSTEM LOSSES GW =           0.0000          SYSTEM LOSSES GW =           0.0000
        SYSTEM LOSSES SW =           0.0000          SYSTEM LOSSES SW =           0.0000

                TOTAL IN = 10861349888.0000                  TOTAL IN =         642.0968

          OUT:                                     OUT:
          ----                                     ----
               AG WELLS  =           0.0000                 AG WELLS  =           0.0000
      DIVERSION SEGMENTS =           0.0000        DIVERSION SEGMENTS =           0.0000
       IRRIGATION PONDS  =           0.0000         IRRIGATION PONDS  =           0.0000
           GW IRRIGATION =  9831563264.0000             GW IRRIGATION =         600.0000
           SW IRRIGATION =  1029805952.0000             SW IRRIGATION =          42.0977
        SYSTEM LOSSES GW =           0.0000          SYSTEM LOSSES GW =           0.0000
        SYSTEM LOSSES SW =           0.0000          SYSTEM LOSSES SW =           0.0000

               TOTAL OUT = 10861369344.0000                 TOTAL OUT =         642.0977

                IN - OUT =      -19456.0000                  IN - OUT =      -8.5449E-04

     PERCENT DISCREPANCY =          -0.00         PERCENT DISCREPANCY =          -0.00



1
  VOLUMETRIC BUDGET FOR ENTIRE MODEL AT END OF TIME STEP   30, STRESS PERIOD  42
  ------------------------------------------------------------------------------

     CUMULATIVE VOLUMES      L**3       RATES FOR THIS TIME STEP      L**3/T
     ------------------                 ------------------------

           IN:                                      IN:
           ---                                      ---
             STORAGE     =  8189296640.0000               STORAGE     =         225.5660
       CONSTANT HEAD     =           0.0000         CONSTANT HEAD     =           0.0000
     HEAD DEP BOUNDS     =    30951624.0000       HEAD DEP BOUNDS     =           0.2884
      STREAM LEAKAGE     =  1335983232.0000        STREAM LEAKAGE     =          12.5400
        UZF RECHARGE     =  8268248576.0000          UZF RECHARGE     =         639.6940
               GW ET     =           0.0000                 GW ET     =           0.0000
     SURFACE LEAKAGE     =           0.0000       SURFACE LEAKAGE     =           0.0000
           AG WELLS      =           0.0000             AG WELLS      =           0.0000

                TOTAL IN = 17824479232.0000                  TOTAL IN =         878.0884

          OUT:                                     OUT:
          ----                                     ----
             STORAGE     =  6859349504.0000               STORAGE     =         266.7467
       CONSTANT HEAD     =           0.0000         CONSTANT HEAD     =           0.0000
     HEAD DEP BOUNDS     =    31360760.0000       HEAD DEP BOUNDS     =           0.2897
      STREAM LEAKAGE     =  1100597632.0000        STREAM LEAKAGE     =          11.0629
        UZF RECHARGE     =           0.0000          UZF RECHARGE     =           0.0000
               GW ET     =     1532757.2500                 GW ET     =           0.0000
     SURFACE LEAKAGE     =           0.0000       SURFACE LEAKAGE     =           0.0000
           AG WELLS      =  9831563264.0000             AG WELLS      =         600.0000

               TOTAL OUT = 17824403456.0000                 TOTAL OUT =         878.0994

                IN - OUT =       75776.0000                  IN - OUT =      -1.0986E-02

     PERCENT DISCREPANCY =           0.00         PERCENT DISCREPANCY =          -0.00






         TIME SUMMARY AT END OF TIME STEP   30 IN STRESS PERIOD   42
                    SECONDS     MINUTES      HOURS       DAYS        YEARS
                    -----------------------------------------------------------
   TIME STEP LENGTH  87667.      1461.1      24.352      1.0147     2.77799E-03
 STRESS PERIOD TIME 2.63000E+06  43833.      730.56      30.440     8.33397E-02
         TOTAL TIME 1.07916E+08 1.79859E+06  29977.      1249.0      3.4196    
1
1
                            STRESS PERIOD NO.   43, LENGTH =   2630000.    
                            -----------------------------------------------

                              NUMBER OF TIME STEPS =    30

                               MULTIPLIER FOR DELT =     1.000

                            INITIAL TIME STEP SIZE =   87666.66    

 REUSING NON-PARAMETER GHB CELLS FROM LAST STRESS PERIOD

      2 GHB CELLS

 REUSING STREAM SEGMENT DATA FROM LAST STRESS PERIOD



            AREAL INFILTRATION RATE
 READING ON UNIT   19 WITH FORMAT: (FREE)              

            1           2           3           4           5           6           7           8           9          10
 ........................................................................................................................
   1   1.0000E-10  2.0000E-10   0.000       0.000       0.000       0.000       0.000       0.000       0.000       0.000    
   2   2.0000E-10  1.0000E-10  2.0000E-10   0.000       0.000      8.0000E-10  8.0000E-10  5.0000E-10   0.000       0.000    
   3    0.000      5.0000E-10  1.0000E-10  1.0000E-10  8.0000E-10  8.0000E-10  5.0000E-10  5.0000E-10   0.000       0.000    
   4   8.0000E-10  5.0000E-10  1.0000E-10  1.0000E-10  1.0000E-10  1.0000E-10  1.0000E-10  1.0000E-10  2.0000E-10   0.000    
   5   8.0000E-10  5.0000E-10  1.0000E-10  1.0000E-10  1.0000E-10  1.0000E-10  1.0000E-10  1.0000E-10  1.0000E-10  1.0000E-10
   6   8.0000E-10  5.0000E-10  5.0000E-10  2.0000E-10  2.0000E-10  1.0000E-10  1.0000E-10  1.0000E-10  1.0000E-10  5.0000E-10
   7   8.0000E-10  5.0000E-10  5.0000E-10  2.0000E-10  2.0000E-10  1.0000E-10  1.0000E-10  2.0000E-10  2.0000E-10   0.000    
   8    0.000      5.0000E-10  5.0000E-10  2.0000E-10  2.0000E-10  1.0000E-10  1.0000E-10  2.0000E-10  5.0000E-10   0.000    
   9    0.000      5.0000E-10  5.0000E-10  2.0000E-10  2.0000E-10  1.0000E-10  1.0000E-10  2.0000E-10  5.0000E-10   0.000    
  10    0.000      5.0000E-10  5.0000E-10  2.0000E-10  2.0000E-10  1.0000E-10  1.0000E-10  2.0000E-10  5.0000E-10  8.0000E-10
  11    0.000      1.0000E-10  1.0000E-10  1.0000E-10  1.0000E-10  1.0000E-10  1.0000E-10  2.0000E-10  5.0000E-10   0.000    
  12   1.0000E-10  1.0000E-10  1.0000E-10  1.0000E-10  1.0000E-10  1.0000E-10  1.0000E-10  1.0000E-10  2.0000E-10   0.000    
  13   1.0000E-10  1.0000E-10  2.0000E-10  2.0000E-10  2.0000E-10  2.0000E-10  2.0000E-10  1.0000E-10  1.0000E-10   0.000    
  14    0.000      2.0000E-10  5.0000E-10  5.0000E-10  5.0000E-10  5.0000E-10  5.0000E-10  2.0000E-10  1.0000E-10   0.000    
  15    0.000       0.000      8.0000E-10  8.0000E-10  8.0000E-10  8.0000E-10   0.000       0.000       0.000       0.000    

                  ET RATE =  1.500000E-07

 USING ET EXTINCTION DEPTH FROM PREVIOUS STRESS PERIOD. CURRENT PERIOD IS:      43

 USING EXTINCTION WATER CONTENT FROM PREVIOUS STRESS PERIOD. CURRENT PERIOD IS:      43

 USING AIR ENTRY PRESSURE FROM PREVIOUS STRESS PERIOD. CURRENT PERIOD IS:      43

 USING ROOT PRESSURE HEAD FROM PREVIOUS STRESS PERIOD. CURRENT PERIOD IS:      43

 USING ROOT ACTIVITY FROM PREVIOUS STRESS PERIOD. CURRENT PERIOD IS:      43

 PROCESSING AG STRESS PERIOD DATA

 READING AG STRESS PERIOD DATA

 READING IRRIGATION SEGMENT

 READING IRRIGATION WELL

 READING SUPPLEMENTAL WELL

 NO IRRPOND OR REUSING IRRPOND DATA FROM LAST STRESS PERIOD

 END PROCESSING AG STRESS PERIOD DATA OPTIONS
 
 SOLVING FOR HEAD 
                                                   Max.-Head-Change                         Max.-Flux-Residual
  Residual-Control   Outer-Iter.   Inner-Iter.     Column Row Layer    Maximum-Head-Change  Column Row Layer    Maximum-Flux-Residual          L2-NORM 
          0                 1           2             4    6     1       0.2577792324E+01       4    6    1         0.1373778715E+03      0.3022366140E+03
          0                 2           2             4    6     1       0.1555702659E+01       4    6    1         0.8266920622E+02      0.1815306978E+03
          0                 3           2             4    6     1       0.9391079295E+00       4    6    1         0.4991297723E+02      0.1095626601E+03
          0                 4           2             4    6     1       0.5670552816E+00       4    6    1         0.3013013748E+02      0.6641257832E+02
          0                 5           2             4    6     1       0.3417979760E+00       4    6    1         0.1815717780E+02      0.4017662796E+02
          0                 6           2             4    6     1       0.2072253123E+00       4    6    1         0.1100563476E+02      0.2445858758E+02
          0                 7           2             4    6     1       0.1245390574E+00       4    6    1         0.6612827231E+01      0.1474595654E+02
          0                 8           2             4    6     1       0.4364971702E-01       4    6    1         0.2322145228E+01      0.4865324390E+01
          0                 9           2             4    6     1       0.5868890901E-01       4    6    1         0.3113101322E+01      0.7144438602E+01
          0                10           2             4    6     1       0.3551967348E-01       4    6    1         0.1883778234E+01      0.4327834012E+01
                                                   Max.-Head-Change                         Max.-Flux-Residual
  Residual-Control   Outer-Iter.   Inner-Iter.     Column Row Layer    Maximum-Head-Change  Column Row Layer    Maximum-Flux-Residual          L2-NORM 
          0                11           2             4    7     1       0.2152307942E-01       4    6    1         0.1140070943E+01      0.2626434389E+01
          0                12           2             4    7     1       0.1326396461E-01       4    7    1         0.6926579706E+00      0.1594134008E+01
          0                13           2             4    7     1       0.8168187146E-02       4    7    1         0.4268162469E+00      0.9677004672E+00
          0                14           2             4    7     1       0.5026688740E-02       4    7    1         0.2628146062E+00      0.5875034744E+00
          0                15           2             4    7     1       0.3091442676E-02       4    7    1         0.1617204178E+00      0.3567214108E+00
          0                16           2             4    7     1       0.1900118396E-02       4    7    1         0.9945020527E-01      0.2166173975E+00
          0                17           2             4    7     1       0.1167229855E-02       4    7    1         0.6112081710E-01      0.1315525766E+00
          0                18           2             4    7     1       0.7166434519E-03       4    7    1         0.3754318144E-01      0.7989948152E-01
          0                19           2             4    7     1       0.4397790750E-03       4    7    1         0.2304867925E-01      0.4853154261E-01
          0                20           2             4    7     1       0.2697511498E-03       4    7    1         0.1414319626E-01      0.2948064266E-01
                                                   Max.-Head-Change                         Max.-Flux-Residual
  Residual-Control   Outer-Iter.   Inner-Iter.     Column Row Layer    Maximum-Head-Change  Column Row Layer    Maximum-Flux-Residual          L2-NORM 
          0                21           2             4    7     1       0.1653868953E-03       4    7    1         0.8674573861E-02      0.1790935356E-01
          0                22           1             4    7     1       0.1013581871E-03       4    7    1         0.5318135439E-02      0.1088054332E-01
          0                23           1             4    7     1       0.6209357444E-04       4    7    1         0.3259058004E-02      0.6610689173E-02

    ------------------------------------------------
       NWT REQUIRED           23 OUTER ITERATIONS 
       AND A TOTAL OF         44 INNER ITERATIONS.
    ------------------------------------------------

 NO OUTPUT CONTROL FOR STRESS PERIOD   43   TIME STEP    1
 
 SOLVING FOR HEAD 
                                                   Max.-Head-Change                         Max.-Flux-Residual
  Residual-Control   Outer-Iter.   Inner-Iter.     Column Row Layer    Maximum-Head-Change  Column Row Layer    Maximum-Flux-Residual          L2-NORM 
          0                 1           2             4    7     1       0.2504922702E+01       4    7    1         0.1310687416E+03      0.2955596358E+03
          0                 2           2             4    7     1       0.1539807580E+01       4    7    1         0.8057520282E+02      0.1787458013E+03
          0                 3           2             4    7     1       0.9457276211E+00       4    7    1         0.4953044423E+02      0.1080585047E+03
          0                 4           2             4    7     1       0.5575120571E+00       4    7    1         0.2916712254E+02      0.6497470178E+02
          0                 5           2             4    7     1       0.3426342650E+00       4    7    1         0.1793442627E+02      0.3944764951E+02
          0                 6           2             4    7     1       0.2104606906E+00       4    7    1         0.1102124186E+02      0.2395201407E+02
          0                 7           2             4    7     1       0.1292079063E+00       4    7    1         0.6769225266E+01      0.1454471598E+02
          0                 8           2             4    7     1       0.7928628150E-01       4    7    1         0.4155534602E+01      0.8832986838E+01
          0                 9           2             4    7     1       0.4863061560E-01       4    7    1         0.2549806661E+01      0.5364708616E+01
          0                10           2             4    7     1       0.2981502767E-01       4    7    1         0.1563838271E+01      0.3258502953E+01
                                                   Max.-Head-Change                         Max.-Flux-Residual
  Residual-Control   Outer-Iter.   Inner-Iter.     Column Row Layer    Maximum-Head-Change  Column Row Layer    Maximum-Flux-Residual          L2-NORM 
          0                11           2             4    7     1       0.1827193643E-01       4    7    1         0.9587195094E+00      0.1979342284E+01
          0                12           2             4    7     1       0.1119353636E-01       4    7    1         0.5875117264E+00      0.1202408506E+01
          0                13           2             4    7     1       0.6854760313E-02       4    7    1         0.3598952859E+00      0.7304815588E+00
          0                14           2             4    7     1       0.4196311544E-02       4    7    1         0.2203835584E+00      0.4438032177E+00
          0                15           2             4    7     1       0.2568037831E-02       4    7    1         0.1349068001E+00      0.2696458030E+00
          0                16           2             4    7     1       0.1571088437E-02       4    7    1         0.8255583914E-01      0.1638389354E+00
          0                17           2             4    7     1       0.9608867625E-03       4    7    1         0.5050429041E-01      0.9955410004E-01
          0                18           2             4    7     1       0.5875199126E-03       4    7    1         0.3088745019E-01      0.6049482769E-01
          0                19           2             4    7     1       0.3591350880E-03       4    7    1         0.1888493675E-01      0.3676148083E-01
          0                20           2             4    7     1       0.2194742995E-03       4    7    1         0.1154342586E-01      0.2233994625E-01
                                                   Max.-Head-Change                         Max.-Flux-Residual
  Residual-Control   Outer-Iter.   Inner-Iter.     Column Row Layer    Maximum-Head-Change  Column Row Layer    Maximum-Flux-Residual          L2-NORM 
          0                21           1             4    7     1       0.1340928100E-03       4    7    1         0.7054159589E-02      0.1357639422E-01
          0                22           1             4    7     1       0.8190839024E-04       4    7    1         0.4309754967E-02      0.8250853042E-02

    ------------------------------------------------
       NWT REQUIRED           22 OUTER ITERATIONS 
       AND A TOTAL OF         42 INNER ITERATIONS.
    ------------------------------------------------

 NO OUTPUT CONTROL FOR STRESS PERIOD   43   TIME STEP    2
 
 SOLVING FOR HEAD 
                                                   Max.-Head-Change                         Max.-Flux-Residual
  Residual-Control   Outer-Iter.   Inner-Iter.     Column Row Layer    Maximum-Head-Change  Column Row Layer    Maximum-Flux-Residual          L2-NORM 
          0                 1           2             4    7     1       0.2449761478E+01       4    7    1         0.1283345525E+03      0.2741311409E+03
          0                 2           2             5    8     1      -0.9936206082E+00       5    8    1        -0.5539698191E+02      0.8604682845E+02
          0                 3           2             5    8     1      -0.5521104693E+00       5    8    1        -0.3074532404E+02      0.5110000053E+02
          0                 4           2             5    8     1      -0.3080738631E+00       5    8    1        -0.1711715317E+02      0.3053414566E+02
          0                 5           2             5    8     1      -0.1723580649E+00       5    8    1        -0.9553620577E+01      0.1833732802E+02
          0                 6           2             5    8     1      -0.9669887445E-01       5    8    1        -0.5346429037E+01      0.1106025815E+02
          0                 7           2             5    8     1      -0.5441110431E-01       5    8    1        -0.3000412263E+01      0.6695654251E+01
          0                 8           2             4    8     1      -0.3296152477E-01       4    8    1        -0.1795470669E+01      0.4066000515E+01
          0                 9           2             4    8     1      -0.2030433601E-01       4    8    1        -0.1107004630E+01      0.2475518879E+01
          0                10           2             4    8     1      -0.1249664934E-01       4    8    1        -0.6818352753E+00      0.1510420900E+01
                                                   Max.-Head-Change                         Max.-Flux-Residual
  Residual-Control   Outer-Iter.   Inner-Iter.     Column Row Layer    Maximum-Head-Change  Column Row Layer    Maximum-Flux-Residual          L2-NORM 
          0                11           2             4    8     1      -0.7685712609E-02       4    8    1        -0.4196044589E+00      0.9232101835E+00
          0                12           2             4    8     1      -0.4724046275E-02       4    8    1        -0.2580434037E+00      0.5651174706E+00
          0                13           2             4    8     1      -0.2902216567E-02       4    8    1        -0.1585952847E+00      0.3463383875E+00
          0                14           2             4    8     1      -0.1782259902E-02       4    8    1        -0.9742672480E-01      0.2124685242E+00
          0                15           2             4    8     1      -0.1094138331E-02       4    8    1        -0.5982676172E-01      0.1304505336E+00
          0                16           2             4    8     1      -0.6715265018E-03       4    8    1        -0.3672622883E-01      0.8014816666E-01
          0                17           2             4    8     1      -0.4120685918E-03       4    8    1        -0.2253979187E-01      0.4927066435E-01
          0                18           2             4    7     1      -0.2560823679E-03       4    8    1        -0.1383061502E-01      0.3030332175E-01
          0                19           2             4    7     1      -0.1602245924E-03       4    7    1        -0.8612563199E-02      0.1864517399E-01
          0                20           1             4    7     1      -0.1001749227E-03       4    7    1        -0.5388175267E-02      0.1147599745E-01
          0                21           1             4    7     1      -0.6258746616E-04       4    7    1        -0.3368474415E-02      0.7065460673E-02

    ------------------------------------------------
       NWT REQUIRED           21 OUTER ITERATIONS 
       AND A TOTAL OF         40 INNER ITERATIONS.
    ------------------------------------------------

 NO OUTPUT CONTROL FOR STRESS PERIOD   43   TIME STEP    3
 
 SOLVING FOR HEAD 
                                                   Max.-Head-Change                         Max.-Flux-Residual
  Residual-Control   Outer-Iter.   Inner-Iter.     Column Row Layer    Maximum-Head-Change  Column Row Layer    Maximum-Flux-Residual          L2-NORM 
          0                 1           2             4    7     1       0.2265845909E+01       4    7    1         0.1194516404E+03      0.2194774368E+03
          0                 2           2             4    7     1       0.1201591463E+01       4    7    1         0.6337816574E+02      0.1136240353E+03
          0                 3           2             4    7     1       0.7256088983E+00       4    7    1         0.3825257748E+02      0.6976707965E+02
          0                 4           2             4    7     1       0.4077151817E+00       4    7    1         0.2149833795E+02      0.3897116878E+02
          0                 5           2             4    7     1       0.2290421998E+00       4    7    1         0.1207950481E+02      0.2175348215E+02
          0                 6           2             4    7     1       0.1286335709E+00       4    7    1         0.6785721330E+01      0.1213123416E+02
          0                 7           2             4    7     1       0.7222144515E-01       4    7    1         0.3810812452E+01      0.6759233434E+01
          0                 8           2             4    7     1       0.4053726401E-01       4    7    1         0.2139493706E+01      0.3766773429E+01
          0                 9           2             4    7     1       0.2274697055E-01       4    7    1         0.1200829026E+01      0.2099464733E+01
          0                10           2             4    7     1       0.1276080581E-01       4    7    1         0.6738025815E+00      0.1170374952E+01
                                                   Max.-Head-Change                         Max.-Flux-Residual
  Residual-Control   Outer-Iter.   Inner-Iter.     Column Row Layer    Maximum-Head-Change  Column Row Layer    Maximum-Flux-Residual          L2-NORM 
          0                11           2             4    7     1       0.7156859318E-02       4    7    1         0.3779811399E+00      0.6525069798E+00
          0                12           2             4    7     1       0.4012925221E-02       4    7    1         0.2119815357E+00      0.3638183670E+00
          0                13           2             4    7     1       0.2249562942E-02       4    7    1         0.1188559040E+00      0.2028697002E+00
          0                14           2             4    7     1       0.1260776014E-02       4    7    1         0.6662582555E-01      0.1131301031E+00
          0                15           2             4    7     1       0.7064550823E-03       4    7    1         0.3733943774E-01      0.6309044429E-01
          0                16           2             4    7     1       0.3957692217E-03       4    7    1         0.2092186446E-01      0.3518601013E-01
          0                17           2             4    7     1       0.2216737332E-03       4    7    1         0.1172045418E-01      0.1962432125E-01
          0                18           1             4    7     1       0.1241380742E-03       4    7    1         0.6564533051E-02      0.1094548563E-01
          0                19           1             4    7     1       0.6950531095E-04       4    7    1         0.3676058001E-02      0.6105048768E-02

    ------------------------------------------------
       NWT REQUIRED           19 OUTER ITERATIONS 
       AND A TOTAL OF         36 INNER ITERATIONS.
    ------------------------------------------------

 NO OUTPUT CONTROL FOR STRESS PERIOD   43   TIME STEP    4
 
 SOLVING FOR HEAD 
                                                   Max.-Head-Change                         Max.-Flux-Residual
  Residual-Control   Outer-Iter.   Inner-Iter.     Column Row Layer    Maximum-Head-Change  Column Row Layer    Maximum-Flux-Residual          L2-NORM 
          0                 1           2             4    7     1       0.1482828749E+01       4    7    1         0.7808061550E+02      0.1473304538E+03
          0                 2           2             4    7     1       0.8183212365E+00       4    7    1         0.4311804855E+02      0.7939994695E+02
          0                 3           2             4    7     1       0.4503455529E+00       4    7    1         0.2374965626E+02      0.4286746126E+02
          0                 4           2             4    7     1       0.2443776041E+00       4    7    1         0.1289229205E+02      0.2304080710E+02
          0                 5           2             4    7     1       0.1325391205E+00       4    7    1         0.6995532457E+01      0.1235276030E+02
          0                 6           2             4    7     1       0.7184525034E-01       4    7    1         0.3793739076E+01      0.6624045907E+01
          0                 7           2             4    7     1       0.3892583420E-01       4    7    1         0.2056303308E+01      0.3552768839E+01
          0                 8           2             4    7     1       0.2108030981E-01       4    7    1         0.1114024036E+01      0.1905844071E+01
          0                 9           2             4    7     1       0.1141109935E-01       4    7    1         0.6032577863E+00      0.1022533447E+01
          0                10           2             4    7     1       0.6174485097E-02       4    7    1         0.3265310518E+00      0.5486949604E+00
                                                   Max.-Head-Change                         Max.-Flux-Residual
  Residual-Control   Outer-Iter.   Inner-Iter.     Column Row Layer    Maximum-Head-Change  Column Row Layer    Maximum-Flux-Residual          L2-NORM 
          0                11           2             4    7     1       0.3339698728E-02       4    7    1         0.1766731140E+00      0.2944705099E+00
          0                12           2             4    7     1       0.1805747065E-02       4    7    1         0.9555453383E-01      0.1580536942E+00
          0                13           2             4    7     1       0.9760201156E-03       4    7    1         0.5166265206E-01      0.8484272328E-01
          0                14           2             4    7     1       0.5273772440E-03       4    7    1         0.2792259081E-01      0.4554777852E-01
          0                15           2             4    7     1       0.2848739669E-03       4    7    1         0.1508678847E-01      0.2445447845E-01
          0                16           2             4    7     1       0.1538368509E-03       4    7    1         0.8149066741E-02      0.1313059908E-01
          0                17           1             4    7     1       0.8305222183E-04       4    7    1         0.4400442401E-02      0.7050863003E-02

    ------------------------------------------------
       NWT REQUIRED           17 OUTER ITERATIONS 
       AND A TOTAL OF         33 INNER ITERATIONS.
    ------------------------------------------------

 NO OUTPUT CONTROL FOR STRESS PERIOD   43   TIME STEP    5
 
 SOLVING FOR HEAD 
     PET DIFF ERROR     6    4    0.2245362550E-08    0.1500000053E-06
     PET DIFF ERROR     6    5    0.2245355990E-08    0.1500000053E-06
     PET DIFF ERROR     7    4    0.2245355975E-08    0.1500000053E-06
     PET DIFF ERROR     7    5    0.2245362550E-08    0.1500000053E-06
     PET DIFF ERROR     8    4    0.2245355975E-08    0.1500000053E-06
     PET DIFF ERROR     8    5    0.2245355975E-08    0.1500000053E-06
                                                   Max.-Head-Change                         Max.-Flux-Residual
  Residual-Control   Outer-Iter.   Inner-Iter.     Column Row Layer    Maximum-Head-Change  Column Row Layer    Maximum-Flux-Residual          L2-NORM 
          0                 1           2             4    7     1       0.1163826824E+01       4    7    1         0.6140027202E+02      0.1105494390E+03
     PET DIFF ERROR     6    4    0.2245362550E-08    0.1500000053E-06
     PET DIFF ERROR     6    5    0.2245355990E-08    0.1500000053E-06
     PET DIFF ERROR     7    4    0.2245355975E-08    0.1500000053E-06
     PET DIFF ERROR     7    5    0.2245362550E-08    0.1500000053E-06
     PET DIFF ERROR     8    4    0.2245355975E-08    0.1500000053E-06
     PET DIFF ERROR     8    5    0.2245355975E-08    0.1500000053E-06
          0                 2           2             4    7     1       0.6144042998E+00       4    7    1         0.3242557343E+02      0.5733288156E+02
     PET DIFF ERROR     6    4    0.2245362550E-08    0.1500000053E-06
     PET DIFF ERROR     6    5    0.2245355990E-08    0.1500000053E-06
     PET DIFF ERROR     7    4    0.2245355975E-08    0.1500000053E-06
     PET DIFF ERROR     7    5    0.2245362550E-08    0.1500000053E-06
     PET DIFF ERROR     8    4    0.2245355975E-08    0.1500000053E-06
     PET DIFF ERROR     8    5    0.2245355975E-08    0.1500000053E-06
          0                 3           2             4    7     1       0.3189549796E+00       4    7    1         0.1683636618E+02      0.2973478090E+02
     PET DIFF ERROR     6    4    0.2245362550E-08    0.1500000053E-06
     PET DIFF ERROR     6    5    0.2245355990E-08    0.1500000053E-06
     PET DIFF ERROR     7    4    0.2245355975E-08    0.1500000053E-06
     PET DIFF ERROR     7    5    0.2245362550E-08    0.1500000053E-06
     PET DIFF ERROR     8    4    0.2245355975E-08    0.1500000053E-06
     PET DIFF ERROR     8    5    0.2245355975E-08    0.1500000053E-06
          0                 4           2             4    7     1       0.1654944528E+00       4    7    1         0.8740070248E+01      0.1545675756E+02
     PET DIFF ERROR     6    4    0.2245362550E-08    0.1500000053E-06
     PET DIFF ERROR     6    5    0.2245355990E-08    0.1500000053E-06
     PET DIFF ERROR     7    4    0.2245355975E-08    0.1500000053E-06
     PET DIFF ERROR     7    5    0.2245362550E-08    0.1500000053E-06
     PET DIFF ERROR     8    4    0.2245355975E-08    0.1500000053E-06
     PET DIFF ERROR     8    5    0.2245355975E-08    0.1500000053E-06
          0                 5           2             4    7     1       0.8582006877E-01       4    7    1         0.4534519712E+01      0.8056210582E+01
     PET DIFF ERROR     6    4    0.2245362550E-08    0.1500000053E-06
     PET DIFF ERROR     6    5    0.2245355990E-08    0.1500000053E-06
     PET DIFF ERROR     7    4    0.2245355975E-08    0.1500000053E-06
     PET DIFF ERROR     7    5    0.2245362550E-08    0.1500000053E-06
     PET DIFF ERROR     8    4    0.2245355975E-08    0.1500000053E-06
     PET DIFF ERROR     8    5    0.2245355975E-08    0.1500000053E-06
          0                 6           2             4    7     1       0.4448185827E-01       4    7    1         0.2351244914E+01      0.4211276029E+01
     PET DIFF ERROR     6    4    0.2245362550E-08    0.1500000053E-06
     PET DIFF ERROR     6    5    0.2245355990E-08    0.1500000053E-06
     PET DIFF ERROR     7    4    0.2245355975E-08    0.1500000053E-06
     PET DIFF ERROR     7    5    0.2245362550E-08    0.1500000053E-06
     PET DIFF ERROR     8    4    0.2245355975E-08    0.1500000053E-06
     PET DIFF ERROR     8    5    0.2245355975E-08    0.1500000053E-06
          0                 7           2             4    7     1       0.2304654394E-01       4    7    1         0.1218595611E+01      0.2209771106E+01
     PET DIFF ERROR     6    4    0.2245362550E-08    0.1500000053E-06
     PET DIFF ERROR     6    5    0.2245355990E-08    0.1500000053E-06
     PET DIFF ERROR     7    4    0.2245355975E-08    0.1500000053E-06
     PET DIFF ERROR     7    5    0.2245362550E-08    0.1500000053E-06
     PET DIFF ERROR     8    4    0.2245355975E-08    0.1500000053E-06
     PET DIFF ERROR     8    5    0.2245355975E-08    0.1500000053E-06
          0                 8           2             4    7     1       0.1193701448E-01       4    7    1         0.6313296740E+00      0.1166659706E+01
     PET DIFF ERROR     6    4    0.2245362550E-08    0.1500000053E-06
     PET DIFF ERROR     6    5    0.2245355990E-08    0.1500000053E-06
     PET DIFF ERROR     7    4    0.2245355975E-08    0.1500000053E-06
     PET DIFF ERROR     7    5    0.2245362550E-08    0.1500000053E-06
     PET DIFF ERROR     8    4    0.2245355975E-08    0.1500000053E-06
     PET DIFF ERROR     8    5    0.2245355975E-08    0.1500000053E-06
          0                 9           2             4    7     1       0.6181447410E-02       4    7    1         0.3269834602E+00      0.6201187771E+00
     PET DIFF ERROR     6    4    0.2245362550E-08    0.1500000053E-06
     PET DIFF ERROR     6    5    0.2245355990E-08    0.1500000053E-06
     PET DIFF ERROR     7    4    0.2245355975E-08    0.1500000053E-06
     PET DIFF ERROR     7    5    0.2245362550E-08    0.1500000053E-06
     PET DIFF ERROR     8    4    0.2245355975E-08    0.1500000053E-06
     PET DIFF ERROR     8    5    0.2245355975E-08    0.1500000053E-06
          0                10           2             5    8     1       0.3439838054E-02       5    8    1         0.1868541237E+00      0.3320218015E+00
     PET DIFF ERROR     6    4    0.2245362550E-08    0.1500000053E-06
     PET DIFF ERROR     6    5    0.2245355990E-08    0.1500000053E-06
     PET DIFF ERROR     7    4    0.2245355975E-08    0.1500000053E-06
     PET DIFF ERROR     7    5    0.2245362550E-08    0.1500000053E-06
     PET DIFF ERROR     8    4    0.2245355975E-08    0.1500000053E-06
     PET DIFF ERROR     8    5    0.2245355975E-08    0.1500000053E-06
                                                   Max.-Head-Change                         Max.-Flux-Residual
  Residual-Control   Outer-Iter.   Inner-Iter.     Column Row Layer    Maximum-Head-Change  Column Row Layer    Maximum-Flux-Residual          L2-NORM 
          0                11           2             5    8     1       0.2018537256E-02       5    8    1         0.1098636952E+00      0.1791349116E+00
     PET DIFF ERROR     6    4    0.2245362550E-08    0.1500000053E-06
     PET DIFF ERROR     6    5    0.2245355990E-08    0.1500000053E-06
     PET DIFF ERROR     7    4    0.2245355975E-08    0.1500000053E-06
     PET DIFF ERROR     7    5    0.2245362550E-08    0.1500000053E-06
     PET DIFF ERROR     8    4    0.2245355975E-08    0.1500000053E-06
     PET DIFF ERROR     8    5    0.2245355975E-08    0.1500000053E-06
          0                12           2             5    8     1       0.1182154963E-02       5    8    1         0.6444777113E-01      0.9740712549E-01
     PET DIFF ERROR     6    4    0.2245362550E-08    0.1500000053E-06
     PET DIFF ERROR     6    5    0.2245355990E-08    0.1500000053E-06
     PET DIFF ERROR     7    4    0.2245355975E-08    0.1500000053E-06
     PET DIFF ERROR     7    5    0.2245362550E-08    0.1500000053E-06
     PET DIFF ERROR     8    4    0.2245355975E-08    0.1500000053E-06
     PET DIFF ERROR     8    5    0.2245355975E-08    0.1500000053E-06
          0                13           2             5    8     1       0.6911713299E-03       5    8    1         0.3773318301E-01      0.5337974852E-01
     PET DIFF ERROR     6    4    0.2245362550E-08    0.1500000053E-06
     PET DIFF ERROR     6    5    0.2245355990E-08    0.1500000053E-06
     PET DIFF ERROR     7    4    0.2245355975E-08    0.1500000053E-06
     PET DIFF ERROR     7    5    0.2245362550E-08    0.1500000053E-06
     PET DIFF ERROR     8    4    0.2245355975E-08    0.1500000053E-06
     PET DIFF ERROR     8    5    0.2245355975E-08    0.1500000053E-06
          0                14           2             5    8     1       0.4035354922E-03       5    8    1         0.2205624193E-01      0.2947272754E-01
     PET DIFF ERROR     6    4    0.2245362550E-08    0.1500000053E-06
     PET DIFF ERROR     6    5    0.2245355990E-08    0.1500000053E-06
     PET DIFF ERROR     7    4    0.2245355975E-08    0.1500000053E-06
     PET DIFF ERROR     7    5    0.2245362550E-08    0.1500000053E-06
     PET DIFF ERROR     8    4    0.2245355975E-08    0.1500000053E-06
     PET DIFF ERROR     8    5    0.2245355975E-08    0.1500000053E-06
          0                15           1             5    8     1       0.2353176909E-03       5    8    1         0.1287478299E-01      0.1638781443E-01
     PET DIFF ERROR     6    4    0.2245362550E-08    0.1500000053E-06
     PET DIFF ERROR     6    5    0.2245355990E-08    0.1500000053E-06
     PET DIFF ERROR     7    4    0.2245355975E-08    0.1500000053E-06
     PET DIFF ERROR     7    5    0.2245362550E-08    0.1500000053E-06
     PET DIFF ERROR     8    4    0.2245355975E-08    0.1500000053E-06
     PET DIFF ERROR     8    5    0.2245355975E-08    0.1500000053E-06
          0                16           1             5    8     1       0.1370821986E-03       5    8    1         0.7506510948E-02      0.9170942498E-02
     PET DIFF ERROR     6    4    0.2245362550E-08    0.1500000053E-06
     PET DIFF ERROR     6    5    0.2245355990E-08    0.1500000053E-06
     PET DIFF ERROR     7    4    0.2245355975E-08    0.1500000053E-06
     PET DIFF ERROR     7    5    0.2245362550E-08    0.1500000053E-06
     PET DIFF ERROR     8    4    0.2245355975E-08    0.1500000053E-06
     PET DIFF ERROR     8    5    0.2245355975E-08    0.1500000053E-06
          0                17           1             5    8     1       0.7978579936E-04       5    8    1         0.4372208218E-02      0.5161728200E-02

    ------------------------------------------------
       NWT REQUIRED           17 OUTER ITERATIONS 
       AND A TOTAL OF         31 INNER ITERATIONS.
    ------------------------------------------------

 NO OUTPUT CONTROL FOR STRESS PERIOD   43   TIME STEP    6
     PET DIFF ERROR     6    4    0.2245362550E-08    0.1500000053E-06
     PET DIFF ERROR     6    5    0.2245355990E-08    0.1500000053E-06
     PET DIFF ERROR     7    4    0.2245355975E-08    0.1500000053E-06
     PET DIFF ERROR     7    5    0.2245362550E-08    0.1500000053E-06
     PET DIFF ERROR     8    4    0.2245355975E-08    0.1500000053E-06
     PET DIFF ERROR     8    5    0.2245355975E-08    0.1500000053E-06
 
 SOLVING FOR HEAD 
                                                   Max.-Head-Change                         Max.-Flux-Residual
  Residual-Control   Outer-Iter.   Inner-Iter.     Column Row Layer    Maximum-Head-Change  Column Row Layer    Maximum-Flux-Residual          L2-NORM 
          0                 1           2             4    8     1       0.1226068307E+01       4    8    1         0.6510515905E+02      0.1314713584E+03
          0                 2           2             4    6     1      -0.1463170423E+01       4    6    1        -0.7986874970E+02      0.1740846683E+03
          0                 3           2             5    6     1      -0.7642146921E+00       5    6    1        -0.4213606144E+02      0.9635910431E+02
          0                 4           2             5    6     1      -0.4630168540E+00       5    6    1        -0.2567819206E+02      0.5146907484E+02
          0                 5           2             5    6     1      -0.2772613568E+00       5    6    1        -0.1550631633E+02      0.2728108756E+02
          0                 6           2             5    7     1      -0.1618160390E+00       5    7    1        -0.9130824943E+01      0.1321641409E+02
          0                 7           2             4    8     1      -0.9468230835E-01       4    8    1        -0.5252561137E+01      0.5992791533E+01
          0                 8           2             4    8     1      -0.5708032607E-01       4    8    1        -0.3170499303E+01      0.3311927239E+01
          0                 9           2             4    8     1      -0.3437665934E-01       4    8    1        -0.1911076736E+01      0.1964772502E+01
          0                10           2             4    8     1      -0.2068747127E-01       4    8    1        -0.1150810562E+01      0.1172336755E+01
                                                   Max.-Head-Change                         Max.-Flux-Residual
  Residual-Control   Outer-Iter.   Inner-Iter.     Column Row Layer    Maximum-Head-Change  Column Row Layer    Maximum-Flux-Residual          L2-NORM 
          0                11           2             4    8     1      -0.1244222682E-01       4    8    1        -0.6924797204E+00      0.7013690158E+00
          0                12           2             4    8     1      -0.7479911837E-02       4    8    1        -0.4164525311E+00      0.4202486700E+00
          0                13           2             4    8     1      -0.4495193227E-02       4    8    1        -0.2503443648E+00      0.2520251458E+00
          0                14           2             4    8     1      -0.2700775451E-02       4    8    1        -0.1504417359E+00      0.1512142619E+00
          0                15           2             4    8     1      -0.1622344601E-02       4    8    1        -0.9038380371E-01      0.9075232172E-01
          0                16           2             4    8     1      -0.9743885876E-03       4    8    1        -0.5429128051E-01      0.5447344432E-01
          0                17           2             4    8     1      -0.5851548920E-03       4    8    1        -0.3260663871E-01      0.3269969503E-01
          0                18           2             4    8     1      -0.3513747409E-03       4    8    1        -0.1958091957E-01      0.1962987436E-01
          0                19           2             4    8     1      -0.2109793719E-03       4    8    1        -0.1175769923E-01      0.1178411875E-01
          0                20           2             4    8     1      -0.1266735163E-03       4    8    1        -0.7059635072E-02      0.7074204087E-02
          0                21           1             4    8     1      -0.7605242357E-04       4    8    1        -0.4238568474E-02      0.4246747434E-02

    ------------------------------------------------
       NWT REQUIRED           21 OUTER ITERATIONS 
       AND A TOTAL OF         41 INNER ITERATIONS.
    ------------------------------------------------

 NO OUTPUT CONTROL FOR STRESS PERIOD   43   TIME STEP    7
 
 SOLVING FOR HEAD 
                                                   Max.-Head-Change                         Max.-Flux-Residual
  Residual-Control   Outer-Iter.   Inner-Iter.     Column Row Layer    Maximum-Head-Change  Column Row Layer    Maximum-Flux-Residual          L2-NORM 
          0                 1           2             4    7     1       0.1531803314E+01       4    7    1         0.8102330341E+02      0.1352123788E+03
          0                 2           2             4    7     1       0.6400305175E+00       4    7    1         0.3390276307E+02      0.5433860302E+02
          0                 3           2             4    7     1       0.3477937060E+00       4    7    1         0.1838423997E+02      0.3122665328E+02
          0                 4           2             4    7     1       0.1617538697E+00       4    7    1         0.8550780720E+01      0.1451328454E+02
          0                 5           2             4    7     1       0.7522534076E-01       4    7    1         0.3976834686E+01      0.6746670537E+01
          0                 6           2             4    7     1       0.3498275550E-01       4    7    1         0.1849458064E+01      0.3136517927E+01
          0                 7           2             4    7     1       0.1626774381E-01       4    7    1         0.8600658521E+00      0.1458135915E+01
          0                 8           2             4    7     1       0.7564613715E-02       4    7    1         0.3999470643E+00      0.6778211484E+00
          0                 9           2             4    7     1       0.3517504704E-02       4    7    1         0.1859772092E+00      0.3151054784E+00
          0                10           2             4    7     1       0.1635585475E-02       4    7    1         0.8647802610E-01      0.1464938746E+00
                                                   Max.-Head-Change                         Max.-Flux-Residual
  Residual-Control   Outer-Iter.   Inner-Iter.     Column Row Layer    Maximum-Head-Change  Column Row Layer    Maximum-Flux-Residual          L2-NORM 
          0                11           2             4    7     1       0.7605089591E-03       4    7    1         0.4021080498E-01      0.6810894751E-01
          0                12           2             4    7     1       0.3536141677E-03       4    7    1         0.1869702931E-01      0.3166713242E-01
          0                13           2             4    7     1       0.1644185196E-03       4    7    1         0.8693546279E-02      0.1472420786E-01
          0                14           1             4    7     1       0.7644849230E-04       4    7    1         0.4042195799E-02      0.6846563402E-02

    ------------------------------------------------
       NWT REQUIRED           14 OUTER ITERATIONS 
       AND A TOTAL OF         27 INNER ITERATIONS.
    ------------------------------------------------

 NO OUTPUT CONTROL FOR STRESS PERIOD   43   TIME STEP    8
 
 SOLVING FOR HEAD 
                                                   Max.-Head-Change                         Max.-Flux-Residual
  Residual-Control   Outer-Iter.   Inner-Iter.     Column Row Layer    Maximum-Head-Change  Column Row Layer    Maximum-Flux-Residual          L2-NORM 
          0                 1           2             4    7     1       0.5375862006E+00       4    7    1         0.2839763749E+02      0.5183588387E+02
          0                 2           2             4    7     1       0.2502969179E+00       4    7    1         0.1321874878E+02      0.2372667409E+02
          0                 3           2             4    7     1       0.1165415550E+00       4    7    1         0.6154947410E+01      0.1102058142E+02
          0                 4           2             4    7     1       0.5426509180E-01       4    7    1         0.2865843843E+01      0.5125750010E+01
          0                 5           2             4    7     1       0.2526802044E-01       4    7    1         0.1334431297E+01      0.2383891582E+01
          0                 6           2             4    7     1       0.1176602459E-01       4    7    1         0.6213684405E+00      0.1108733678E+01
          0                 7           2             4    7     1       0.5478900261E-02       4    7    1         0.2893405296E+00      0.5156756793E+00
          0                 8           2             4    7     1       0.2551289421E-02       4    7    1         0.1347329588E+00      0.2398467980E+00
          0                 9           2             4    7     1       0.1188027880E-02       4    7    1         0.6273943978E-01      0.1115573459E+00
          0                10           2             4    7     1       0.5532128493E-03       4    7    1         0.2921511510E-01      0.5188820029E-01
                                                   Max.-Head-Change                         Max.-Flux-Residual
  Residual-Control   Outer-Iter.   Inner-Iter.     Column Row Layer    Maximum-Head-Change  Column Row Layer    Maximum-Flux-Residual          L2-NORM 
          0                11           2             4    7     1       0.2576054252E-03       4    7    1         0.1360419843E-01      0.2413484613E-01
          0                12           1             4    7     1       0.1199536569E-03       4    7    1         0.6334832724E-02      0.1122600789E-01
          0                13           1             4    7     1       0.5585557604E-04       4    7    1         0.2949801888E-02      0.5221682882E-02

    ------------------------------------------------
       NWT REQUIRED           13 OUTER ITERATIONS 
       AND A TOTAL OF         24 INNER ITERATIONS.
    ------------------------------------------------

 NO OUTPUT CONTROL FOR STRESS PERIOD   43   TIME STEP    9
 
 SOLVING FOR HEAD 
     PET DIFF ERROR     6    4    0.2245362550E-08    0.1500000053E-06
     PET DIFF ERROR     6    5    0.2245359270E-08    0.1500000053E-06
     PET DIFF ERROR     7    4    0.2245356025E-08    0.1500000053E-06
     PET DIFF ERROR     7    5    0.2245355975E-08    0.1500000053E-06
     PET DIFF ERROR     8    4    0.2245362565E-08    0.1500000053E-06
     PET DIFF ERROR     8    5    0.2245355975E-08    0.1500000053E-06
                                                   Max.-Head-Change                         Max.-Flux-Residual
  Residual-Control   Outer-Iter.   Inner-Iter.     Column Row Layer    Maximum-Head-Change  Column Row Layer    Maximum-Flux-Residual          L2-NORM 
          0                 1           2             4    7     1       0.5196276782E+00       4    7    1         0.2744428646E+02      0.5033624218E+02
     PET DIFF ERROR     6    4    0.2245362550E-08    0.1500000053E-06
     PET DIFF ERROR     6    5    0.2245359270E-08    0.1500000053E-06
     PET DIFF ERROR     7    4    0.2245356025E-08    0.1500000053E-06
     PET DIFF ERROR     7    5    0.2245355975E-08    0.1500000053E-06
     PET DIFF ERROR     8    4    0.2245362565E-08    0.1500000053E-06
     PET DIFF ERROR     8    5    0.2245355975E-08    0.1500000053E-06
          0                 2           2             4    7     1       0.2419609951E+00       4    7    1         0.1277764860E+02      0.2295771766E+02
     PET DIFF ERROR     6    4    0.2245362550E-08    0.1500000053E-06
     PET DIFF ERROR     6    5    0.2245359270E-08    0.1500000053E-06
     PET DIFF ERROR     7    4    0.2245356025E-08    0.1500000053E-06
     PET DIFF ERROR     7    5    0.2245355975E-08    0.1500000053E-06
     PET DIFF ERROR     8    4    0.2245362565E-08    0.1500000053E-06
     PET DIFF ERROR     8    5    0.2245355975E-08    0.1500000053E-06
          0                 3           2             4    7     1       0.1126644188E+00       4    7    1         0.5950058122E+01      0.1065290048E+02
     PET DIFF ERROR     6    4    0.2245362550E-08    0.1500000053E-06
     PET DIFF ERROR     6    5    0.2245359270E-08    0.1500000053E-06
     PET DIFF ERROR     7    4    0.2245356025E-08    0.1500000053E-06
     PET DIFF ERROR     7    5    0.2245355975E-08    0.1500000053E-06
     PET DIFF ERROR     8    4    0.2245362565E-08    0.1500000053E-06
     PET DIFF ERROR     8    5    0.2245355975E-08    0.1500000053E-06
          0                 4           2             4    7     1       0.5245941450E-01       4    7    1         0.2770514948E+01      0.4952899095E+01
     PET DIFF ERROR     6    4    0.2245362550E-08    0.1500000053E-06
     PET DIFF ERROR     6    5    0.2245359270E-08    0.1500000053E-06
     PET DIFF ERROR     7    4    0.2245356025E-08    0.1500000053E-06
     PET DIFF ERROR     7    5    0.2245355975E-08    0.1500000053E-06
     PET DIFF ERROR     8    4    0.2245362565E-08    0.1500000053E-06
     PET DIFF ERROR     8    5    0.2245355975E-08    0.1500000053E-06
          0                 5           2             4    7     1       0.2442622669E-01       4    7    1         0.1290024886E+01      0.2302679109E+01
     PET DIFF ERROR     6    4    0.2245362550E-08    0.1500000053E-06
     PET DIFF ERROR     6    5    0.2245359270E-08    0.1500000053E-06
     PET DIFF ERROR     7    4    0.2245356025E-08    0.1500000053E-06
     PET DIFF ERROR     7    5    0.2245355975E-08    0.1500000053E-06
     PET DIFF ERROR     8    4    0.2245362565E-08    0.1500000053E-06
     PET DIFF ERROR     8    5    0.2245355975E-08    0.1500000053E-06
          0                 6           2             4    7     1       0.1137323200E-01       4    7    1         0.6006628764E+00      0.1070579645E+01
     PET DIFF ERROR     6    4    0.2245362550E-08    0.1500000053E-06
     PET DIFF ERROR     6    5    0.2245359270E-08    0.1500000053E-06
     PET DIFF ERROR     7    4    0.2245356025E-08    0.1500000053E-06
     PET DIFF ERROR     7    5    0.2245355975E-08    0.1500000053E-06
     PET DIFF ERROR     8    4    0.2245362565E-08    0.1500000053E-06
     PET DIFF ERROR     8    5    0.2245355975E-08    0.1500000053E-06
          0                 7           2             4    7     1       0.5295469716E-02       4    7    1         0.2796775045E+00      0.4977507837E+00
     PET DIFF ERROR     6    4    0.2245362550E-08    0.1500000053E-06
     PET DIFF ERROR     6    5    0.2245359270E-08    0.1500000053E-06
     PET DIFF ERROR     7    4    0.2245356025E-08    0.1500000053E-06
     PET DIFF ERROR     7    5    0.2245355975E-08    0.1500000053E-06
     PET DIFF ERROR     8    4    0.2245362565E-08    0.1500000053E-06
     PET DIFF ERROR     8    5    0.2245355975E-08    0.1500000053E-06
          0                 8           2             4    7     1       0.2465567356E-02       4    7    1         0.1302197827E+00      0.2314259035E+00
     PET DIFF ERROR     6    4    0.2245362550E-08    0.1500000053E-06
     PET DIFF ERROR     6    5    0.2245359270E-08    0.1500000053E-06
     PET DIFF ERROR     7    4    0.2245356025E-08    0.1500000053E-06
     PET DIFF ERROR     7    5    0.2245355975E-08    0.1500000053E-06
     PET DIFF ERROR     8    4    0.2245362565E-08    0.1500000053E-06
     PET DIFF ERROR     8    5    0.2245355975E-08    0.1500000053E-06
          0                 9           2             4    7     1       0.1147942034E-02       4    7    1         0.6063004778E-01      0.1076015044E+00
     PET DIFF ERROR     6    4    0.2245362550E-08    0.1500000053E-06
     PET DIFF ERROR     6    5    0.2245359270E-08    0.1500000053E-06
     PET DIFF ERROR     7    4    0.2245356025E-08    0.1500000053E-06
     PET DIFF ERROR     7    5    0.2245355975E-08    0.1500000053E-06
     PET DIFF ERROR     8    4    0.2245362565E-08    0.1500000053E-06
     PET DIFF ERROR     8    5    0.2245355975E-08    0.1500000053E-06
          0                10           2             4    7     1       0.5344570881E-03       4    7    1         0.2822860038E-01      0.5002999646E-01
     PET DIFF ERROR     6    4    0.2245362550E-08    0.1500000053E-06
     PET DIFF ERROR     6    5    0.2245359270E-08    0.1500000053E-06
     PET DIFF ERROR     7    4    0.2245356025E-08    0.1500000053E-06
     PET DIFF ERROR     7    5    0.2245355975E-08    0.1500000053E-06
     PET DIFF ERROR     8    4    0.2245362565E-08    0.1500000053E-06
     PET DIFF ERROR     8    5    0.2245355975E-08    0.1500000053E-06
                                                   Max.-Head-Change                         Max.-Flux-Residual
  Residual-Control   Outer-Iter.   Inner-Iter.     Column Row Layer    Maximum-Head-Change  Column Row Layer    Maximum-Flux-Residual          L2-NORM 
          0                11           2             4    7     1       0.2488254329E-03       4    7    1         0.1314257330E-01      0.2326204013E-01
     PET DIFF ERROR     6    4    0.2245362550E-08    0.1500000053E-06
     PET DIFF ERROR     6    5    0.2245359270E-08    0.1500000053E-06
     PET DIFF ERROR     7    4    0.2245356025E-08    0.1500000053E-06
     PET DIFF ERROR     7    5    0.2245355975E-08    0.1500000053E-06
     PET DIFF ERROR     8    4    0.2245362565E-08    0.1500000053E-06
     PET DIFF ERROR     8    5    0.2245355975E-08    0.1500000053E-06
          0                12           1             4    7     1       0.1158417572E-03       4    7    1         0.6118717199E-02      0.1081607850E-01
     PET DIFF ERROR     6    4    0.2245362550E-08    0.1500000053E-06
     PET DIFF ERROR     6    5    0.2245359270E-08    0.1500000053E-06
     PET DIFF ERROR     7    4    0.2245356025E-08    0.1500000053E-06
     PET DIFF ERROR     7    5    0.2245355975E-08    0.1500000053E-06
     PET DIFF ERROR     8    4    0.2245362565E-08    0.1500000053E-06
     PET DIFF ERROR     8    5    0.2245355975E-08    0.1500000053E-06
          0                13           1             4    7     1       0.5392913562E-04       4    7    1         0.2848581772E-02      0.5029167639E-02

    ------------------------------------------------
       NWT REQUIRED           13 OUTER ITERATIONS 
       AND A TOTAL OF         24 INNER ITERATIONS.
    ------------------------------------------------

 NO OUTPUT CONTROL FOR STRESS PERIOD   43   TIME STEP   10
     PET DIFF ERROR     6    4    0.2245362550E-08    0.1500000053E-06
     PET DIFF ERROR     6    5    0.2245359270E-08    0.1500000053E-06
     PET DIFF ERROR     7    4    0.2245356025E-08    0.1500000053E-06
     PET DIFF ERROR     7    5    0.2245355975E-08    0.1500000053E-06
     PET DIFF ERROR     8    4    0.2245362565E-08    0.1500000053E-06
     PET DIFF ERROR     8    5    0.2245355975E-08    0.1500000053E-06
 
 SOLVING FOR HEAD 
                                                   Max.-Head-Change                         Max.-Flux-Residual
  Residual-Control   Outer-Iter.   Inner-Iter.     Column Row Layer    Maximum-Head-Change  Column Row Layer    Maximum-Flux-Residual          L2-NORM 
          0                 1           2             4    8     1       0.7044100568E+00       4    8    1         0.3732759458E+02      0.7150244293E+02
          0                 2           2             4    6     1      -0.1672071205E+01       4    6    1        -0.9109555594E+02      0.2100383058E+03
          0                 3           2             5    7     1      -0.8593987250E+00       5    7    1        -0.4723243849E+02      0.9135520814E+02
          0                 4           2             5    8     1      -0.1867463501E+00       5    8    1        -0.1056058549E+02      0.1265760248E+02
          0                 5           2             5    8     1       0.1271734175E-01       5    8    1         0.7378603173E+00      0.8432206990E+00
          0                 6           2             5    8     1      -0.5062887623E-03       5    8    1        -0.3013874492E-01      0.3358841742E-01
          0                 7           1             5    8     1       0.6252007472E-05       5    8    1         0.3818396922E-03      0.4251532080E-03

    ------------------------------------------------
       NWT REQUIRED            7 OUTER ITERATIONS 
       AND A TOTAL OF         13 INNER ITERATIONS.
    ------------------------------------------------

 NO OUTPUT CONTROL FOR STRESS PERIOD   43   TIME STEP   11
 
 SOLVING FOR HEAD 
                                                   Max.-Head-Change                         Max.-Flux-Residual
  Residual-Control   Outer-Iter.   Inner-Iter.     Column Row Layer    Maximum-Head-Change  Column Row Layer    Maximum-Flux-Residual          L2-NORM 
          0                 1           2             4    7     1       0.3239958059E+00       4    7    1         0.1727864753E+02      0.2492481181E+02
          0                 2           2             4    7     1       0.7733174806E-01       4    7    1         0.4200453675E+01      0.4866441794E+01
          0                 3           2             4    7     1       0.8568845287E-01       4    7    1         0.4546035288E+01      0.7218453161E+01
          0                 4           2             4    7     1       0.3968691625E-01       4    7    1         0.2105091472E+01      0.3381991661E+01
          0                 5           2             4    7     1       0.1838584688E-01       4    7    1         0.9750254242E+00      0.1590395416E+01
          0                 6           2             4    7     1       0.8520007807E-02       4    7    1         0.4517234308E+00      0.7488413608E+00
          0                 7           2             4    7     1       0.3949342750E-02       4    7    1         0.2093393038E+00      0.3529670254E+00
          0                 8           2             4    7     1       0.1831243726E-02       4    7    1         0.9704178198E-01      0.1665409456E+00
          0                 9           2             4    7     1       0.8493986975E-03       4    7    1         0.4499917947E-01      0.7865612582E-01
          0                10           2             4    7     1       0.3941199381E-03       4    7    1         0.2087352782E-01      0.3718348059E-01
                                                   Max.-Head-Change                         Max.-Flux-Residual
  Residual-Control   Outer-Iter.   Inner-Iter.     Column Row Layer    Maximum-Head-Change  Column Row Layer    Maximum-Flux-Residual          L2-NORM 
          0                11           2             4    7     1       0.1829378153E-03       4    7    1         0.9685894761E-02      0.1759358280E-01
          0                12           1             4    7     1       0.8494608728E-04       4    7    1         0.4496173929E-02      0.8331549348E-02

    ------------------------------------------------
       NWT REQUIRED           12 OUTER ITERATIONS 
       AND A TOTAL OF         23 INNER ITERATIONS.
    ------------------------------------------------

 NO OUTPUT CONTROL FOR STRESS PERIOD   43   TIME STEP   12
 
 SOLVING FOR HEAD 
                                                   Max.-Head-Change                         Max.-Flux-Residual
  Residual-Control   Outer-Iter.   Inner-Iter.     Column Row Layer    Maximum-Head-Change  Column Row Layer    Maximum-Flux-Residual          L2-NORM 
          0                 1           2             4    7     1       0.4896556694E+00       4    7    1         0.2576874526E+02      0.5195498236E+02
          0                 2           2             4    7     1       0.2289714768E+00       4    7    1         0.1204997766E+02      0.2395220049E+02
          0                 3           2             4    7     1       0.1070551730E+00       4    7    1         0.5634821100E+01      0.1112912578E+02
          0                 4           2             4    7     1       0.5004607160E-01       4    7    1         0.2634482512E+01      0.5176413190E+01
          0                 5           2             4    7     1       0.2339207548E-01       4    7    1         0.1231537105E+01      0.2407721107E+01
          0                 6           2             4    7     1       0.1093212308E-01       4    7    1         0.5756194301E+00      0.1119969739E+01
          0                 7           2             4    7     1       0.5108318977E-02       4    7    1         0.2690049748E+00      0.5209853768E+00
          0                 8           2             4    7     1       0.2386657814E-02       4    7    1         0.1256964308E+00      0.2423606956E+00
          0                 9           2             4    7     1       0.1114915665E-02       4    7    1         0.5872517932E-01      0.1127494822E+00
          0                10           2             4    7     1       0.5207565860E-03       4    7    1         0.2743251572E-01      0.5245430124E-01
                                                   Max.-Head-Change                         Max.-Flux-Residual
  Residual-Control   Outer-Iter.   Inner-Iter.     Column Row Layer    Maximum-Head-Change  Column Row Layer    Maximum-Flux-Residual          L2-NORM 
          0                11           2             4    7     1       0.2432034305E-03       4    7    1         0.1281291704E-01      0.2440396928E-01
          0                12           1             4    7     1       0.1135659551E-03       4    7    1         0.5983740986E-02      0.1135406610E-01
          0                13           1             4    7     1       0.5302388821E-04       4    7    1         0.2794096069E-02      0.5282662232E-02

    ------------------------------------------------
       NWT REQUIRED           13 OUTER ITERATIONS 
       AND A TOTAL OF         24 INNER ITERATIONS.
    ------------------------------------------------

 NO OUTPUT CONTROL FOR STRESS PERIOD   43   TIME STEP   13
 
 SOLVING FOR HEAD 
     PET DIFF ERROR     6    4    0.2245355975E-08    0.1500000053E-06
     PET DIFF ERROR     6    5    0.2245359288E-08    0.1500000053E-06
     PET DIFF ERROR     7    4    0.2245355975E-08    0.1500000053E-06
     PET DIFF ERROR     7    5    0.2245362575E-08    0.1500000053E-06
     PET DIFF ERROR     8    4    0.2245359270E-08    0.1500000053E-06
     PET DIFF ERROR     8    5    0.2245355975E-08    0.1500000053E-06
                                                   Max.-Head-Change                         Max.-Flux-Residual
  Residual-Control   Outer-Iter.   Inner-Iter.     Column Row Layer    Maximum-Head-Change  Column Row Layer    Maximum-Flux-Residual          L2-NORM 
          0                 1           2             4    7     1       0.4766987679E+00       4    7    1         0.2508909317E+02      0.5037928491E+02
     PET DIFF ERROR     6    4    0.2245355975E-08    0.1500000053E-06
     PET DIFF ERROR     6    5    0.2245359288E-08    0.1500000053E-06
     PET DIFF ERROR     7    4    0.2245355975E-08    0.1500000053E-06
     PET DIFF ERROR     7    5    0.2245362575E-08    0.1500000053E-06
     PET DIFF ERROR     8    4    0.2245359270E-08    0.1500000053E-06
     PET DIFF ERROR     8    5    0.2245355975E-08    0.1500000053E-06
          0                 2           2             4    7     1       0.2228673924E+00       4    7    1         0.1173090044E+02      0.2315892585E+02
     PET DIFF ERROR     6    4    0.2245355975E-08    0.1500000053E-06
     PET DIFF ERROR     6    5    0.2245359288E-08    0.1500000053E-06
     PET DIFF ERROR     7    4    0.2245355975E-08    0.1500000053E-06
     PET DIFF ERROR     7    5    0.2245362575E-08    0.1500000053E-06
     PET DIFF ERROR     8    4    0.2245359270E-08    0.1500000053E-06
     PET DIFF ERROR     8    5    0.2245355975E-08    0.1500000053E-06
          0                 3           2             4    7     1       0.1041796349E+00       4    7    1         0.5484410628E+01      0.1075624418E+02
     PET DIFF ERROR     6    4    0.2245355975E-08    0.1500000053E-06
     PET DIFF ERROR     6    5    0.2245359288E-08    0.1500000053E-06
     PET DIFF ERROR     7    4    0.2245355975E-08    0.1500000053E-06
     PET DIFF ERROR     7    5    0.2245362575E-08    0.1500000053E-06
     PET DIFF ERROR     8    4    0.2245359270E-08    0.1500000053E-06
     PET DIFF ERROR     8    5    0.2245355975E-08    0.1500000053E-06
          0                 4           2             4    7     1       0.4869047700E-01       4    7    1         0.2563631233E+01      0.5000753921E+01
     PET DIFF ERROR     6    4    0.2245355975E-08    0.1500000053E-06
     PET DIFF ERROR     6    5    0.2245359288E-08    0.1500000053E-06
     PET DIFF ERROR     7    4    0.2245355975E-08    0.1500000053E-06
     PET DIFF ERROR     7    5    0.2245362575E-08    0.1500000053E-06
     PET DIFF ERROR     8    4    0.2245359270E-08    0.1500000053E-06
     PET DIFF ERROR     8    5    0.2245355975E-08    0.1500000053E-06
          0                 5           2             4    7     1       0.2275239382E-01       4    7    1         0.1198130728E+01      0.2323411268E+01
     PET DIFF ERROR     6    4    0.2245355975E-08    0.1500000053E-06
     PET DIFF ERROR     6    5    0.2245359288E-08    0.1500000053E-06
     PET DIFF ERROR     7    4    0.2245355975E-08    0.1500000053E-06
     PET DIFF ERROR     7    5    0.2245362575E-08    0.1500000053E-06
     PET DIFF ERROR     8    4    0.2245359270E-08    0.1500000053E-06
     PET DIFF ERROR     8    5    0.2245355975E-08    0.1500000053E-06
          0                 6           2             4    7     1       0.1062999397E-01       4    7    1         0.5598527556E+00      0.1079794363E+01
     PET DIFF ERROR     6    4    0.2245355975E-08    0.1500000053E-06
     PET DIFF ERROR     6    5    0.2245359288E-08    0.1500000053E-06
     PET DIFF ERROR     7    4    0.2245355975E-08    0.1500000053E-06
     PET DIFF ERROR     7    5    0.2245362575E-08    0.1500000053E-06
     PET DIFF ERROR     8    4    0.2245359270E-08    0.1500000053E-06
     PET DIFF ERROR     8    5    0.2245355975E-08    0.1500000053E-06
          0                 7           2             4    7     1       0.4965505653E-02       4    7    1         0.2615570222E+00      0.5018526152E+00
     PET DIFF ERROR     6    4    0.2245355975E-08    0.1500000053E-06
     PET DIFF ERROR     6    5    0.2245359288E-08    0.1500000053E-06
     PET DIFF ERROR     7    4    0.2245355975E-08    0.1500000053E-06
     PET DIFF ERROR     7    5    0.2245362575E-08    0.1500000053E-06
     PET DIFF ERROR     8    4    0.2245359270E-08    0.1500000053E-06
     PET DIFF ERROR     8    5    0.2245355975E-08    0.1500000053E-06
          0                 8           2             4    7     1       0.2319104363E-02       4    7    1         0.1221753754E+00      0.2332558455E+00
     PET DIFF ERROR     6    4    0.2245355975E-08    0.1500000053E-06
     PET DIFF ERROR     6    5    0.2245359288E-08    0.1500000053E-06
     PET DIFF ERROR     7    4    0.2245355975E-08    0.1500000053E-06
     PET DIFF ERROR     7    5    0.2245362575E-08    0.1500000053E-06
     PET DIFF ERROR     8    4    0.2245359270E-08    0.1500000053E-06
     PET DIFF ERROR     8    5    0.2245355975E-08    0.1500000053E-06
          0                 9           2             4    7     1       0.1082942368E-02       4    7    1         0.5705945319E-01      0.1084196238E+00
     PET DIFF ERROR     6    4    0.2245355975E-08    0.1500000053E-06
     PET DIFF ERROR     6    5    0.2245359288E-08    0.1500000053E-06
     PET DIFF ERROR     7    4    0.2245355975E-08    0.1500000053E-06
     PET DIFF ERROR     7    5    0.2245362575E-08    0.1500000053E-06
     PET DIFF ERROR     8    4    0.2245359270E-08    0.1500000053E-06
     PET DIFF ERROR     8    5    0.2245355975E-08    0.1500000053E-06
          0                10           2             4    7     1       0.5056157443E-03       4    7    1         0.2664404017E-01      0.5039652166E-01
     PET DIFF ERROR     6    4    0.2245355975E-08    0.1500000053E-06
     PET DIFF ERROR     6    5    0.2245359288E-08    0.1500000053E-06
     PET DIFF ERROR     7    4    0.2245355975E-08    0.1500000053E-06
     PET DIFF ERROR     7    5    0.2245362575E-08    0.1500000053E-06
     PET DIFF ERROR     8    4    0.2245359270E-08    0.1500000053E-06
     PET DIFF ERROR     8    5    0.2245355975E-08    0.1500000053E-06
                                                   Max.-Head-Change                         Max.-Flux-Residual
  Residual-Control   Outer-Iter.   Inner-Iter.     Column Row Layer    Maximum-Head-Change  Column Row Layer    Maximum-Flux-Residual          L2-NORM 
          0                11           2             4    7     1       0.2360304425E-03       4    7    1         0.1243950445E-01      0.2342658365E-01
     PET DIFF ERROR     6    4    0.2245355975E-08    0.1500000053E-06
     PET DIFF ERROR     6    5    0.2245359288E-08    0.1500000053E-06
     PET DIFF ERROR     7    4    0.2245355975E-08    0.1500000053E-06
     PET DIFF ERROR     7    5    0.2245362575E-08    0.1500000053E-06
     PET DIFF ERROR     8    4    0.2245359270E-08    0.1500000053E-06
     PET DIFF ERROR     8    5    0.2245355975E-08    0.1500000053E-06
          0                12           1             4    7     1       0.1101665298E-03       4    7    1         0.5806823355E-02      0.1089009476E-01
     PET DIFF ERROR     6    4    0.2245355975E-08    0.1500000053E-06
     PET DIFF ERROR     6    5    0.2245359288E-08    0.1500000053E-06
     PET DIFF ERROR     7    4    0.2245355975E-08    0.1500000053E-06
     PET DIFF ERROR     7    5    0.2245362575E-08    0.1500000053E-06
     PET DIFF ERROR     8    4    0.2245359270E-08    0.1500000053E-06
     PET DIFF ERROR     8    5    0.2245355975E-08    0.1500000053E-06
          0                13           1             4    7     1       0.5141236361E-04       4    7    1         0.2710246070E-02      0.5062527135E-02

    ------------------------------------------------
       NWT REQUIRED           13 OUTER ITERATIONS 
       AND A TOTAL OF         24 INNER ITERATIONS.
    ------------------------------------------------

 NO OUTPUT CONTROL FOR STRESS PERIOD   43   TIME STEP   14
     PET DIFF ERROR     6    4    0.2245355975E-08    0.1500000053E-06
     PET DIFF ERROR     6    5    0.2245359288E-08    0.1500000053E-06
     PET DIFF ERROR     7    4    0.2245355975E-08    0.1500000053E-06
     PET DIFF ERROR     7    5    0.2245362575E-08    0.1500000053E-06
     PET DIFF ERROR     8    4    0.2245359270E-08    0.1500000053E-06
     PET DIFF ERROR     8    5    0.2245355975E-08    0.1500000053E-06
 
 SOLVING FOR HEAD 
                                                   Max.-Head-Change                         Max.-Flux-Residual
  Residual-Control   Outer-Iter.   Inner-Iter.     Column Row Layer    Maximum-Head-Change  Column Row Layer    Maximum-Flux-Residual          L2-NORM 
          0                 1           2             4    8     1       0.7074362929E+00       4    8    1         0.3750012081E+02      0.7122411319E+02
          0                 2           2             4    6     1      -0.1669228110E+01       4    6    1        -0.9091211697E+02      0.2101886852E+03
          0                 3           2             5    7     1      -0.8615546248E+00       5    7    1        -0.4743533379E+02      0.8986635573E+02
          0                 4           2             5    8     1      -0.2073515939E+00       5    8    1        -0.1172722023E+02      0.1362418713E+02
          0                 5           2             5    8     1       0.1418214272E-01       5    8    1         0.8239825318E+00      0.9202024961E+00
          0                 6           2             5    8     1      -0.5645997819E-03       5    8    1        -0.3366287057E-01      0.3685404560E-01
          0                 7           1             5    8     1       0.6972079732E-05       5    8    1         0.4265703817E-03      0.4665656161E-03

    ------------------------------------------------
       NWT REQUIRED            7 OUTER ITERATIONS 
       AND A TOTAL OF         13 INNER ITERATIONS.
    ------------------------------------------------

 NO OUTPUT CONTROL FOR STRESS PERIOD   43   TIME STEP   15
 
 SOLVING FOR HEAD 
                                                   Max.-Head-Change                         Max.-Flux-Residual
  Residual-Control   Outer-Iter.   Inner-Iter.     Column Row Layer    Maximum-Head-Change  Column Row Layer    Maximum-Flux-Residual          L2-NORM 
          0                 1           2             4    7     1       0.2688466885E+00       4    7    1         0.1425220964E+02      0.2413276470E+02
          0                 2           2             4    7     1       0.5282050606E-01       4    7    1         0.2855730839E+01      0.3257245390E+01
          0                 3           2             4    7     1       0.7479254810E-01       4    7    1         0.3948307050E+01      0.7273751137E+01
          0                 4           2             4    7     1       0.3484377289E-01       4    7    1         0.1839383161E+01      0.3423972742E+01
          0                 5           2             4    7     1       0.1623347048E-01       4    7    1         0.8569216108E+00      0.1617508963E+01
          0                 6           2             4    7     1       0.7563681374E-02       4    7    1         0.3992376812E+00      0.7649985620E+00
          0                 7           2             4    7     1       0.3524567814E-02       4    7    1         0.1860202997E+00      0.3621367733E+00
          0                 8           2             4    7     1       0.1642643835E-02       4    7    1         0.8668470930E-01      0.1715767400E+00
          0                 9           2             4    7     1       0.7657005536E-03       4    7    1         0.4040098620E-01      0.8135690543E-01
          0                10           2             4    7     1       0.3569971475E-03       4    7    1         0.1883309599E-01      0.3860627235E-01
                                                   Max.-Head-Change                         Max.-Flux-Residual
  Residual-Control   Outer-Iter.   Inner-Iter.     Column Row Layer    Maximum-Head-Change  Column Row Layer    Maximum-Flux-Residual          L2-NORM 
          0                11           2             4    7     1       0.1664838562E-03       4    7    1         0.8780996911E-02      0.1833271556E-01
          0                12           1             4    7     1       0.7765897723E-04       4    7    1         0.4095147020E-02      0.8711243121E-02

    ------------------------------------------------
       NWT REQUIRED           12 OUTER ITERATIONS 
       AND A TOTAL OF         23 INNER ITERATIONS.
    ------------------------------------------------

 NO OUTPUT CONTROL FOR STRESS PERIOD   43   TIME STEP   16
 
 SOLVING FOR HEAD 
                                                   Max.-Head-Change                         Max.-Flux-Residual
  Residual-Control   Outer-Iter.   Inner-Iter.     Column Row Layer    Maximum-Head-Change  Column Row Layer    Maximum-Flux-Residual          L2-NORM 
          0                 1           2             4    7     1       0.4592283447E+00       4    7    1         0.2409929046E+02      0.5220166344E+02
          0                 2           2             4    7     1       0.2154386446E+00       4    7    1         0.1130807762E+02      0.2414097778E+02
          0                 3           2             4    7     1       0.1010368563E+00       4    7    1         0.5304777950E+01      0.1121435687E+02
          0                 4           2             4    7     1       0.4736983126E-01       4    7    1         0.2487709830E+01      0.5213606536E+01
          0                 5           2             4    7     1       0.2220209610E-01       4    7    1         0.1166269897E+01      0.2423973849E+01
          0                 6           2             4    7     1       0.1040303334E-01       4    7    1         0.5465989625E+00      0.1127085372E+01
          0                 7           2             4    7     1       0.4873085534E-02       4    7    1         0.2561019582E+00      0.5241044700E+00
          0                 8           2             4    7     1       0.2282077428E-02       4    7    1         0.1199597887E+00      0.2437301069E+00
          0                 9           2             4    7     1       0.1068423008E-02       4    7    1         0.5617479415E-01      0.1133516612E+00
          0                10           2             4    7     1       0.5000883739E-03       4    7    1         0.2629871451E-01      0.5271952517E-01
                                                   Max.-Head-Change                         Max.-Flux-Residual
  Residual-Control   Outer-Iter.   Inner-Iter.     Column Row Layer    Maximum-Head-Change  Column Row Layer    Maximum-Flux-Residual          L2-NORM 
          0                11           2             4    7     1       0.2340157203E-03       4    7    1         0.1230889134E-01      0.2452097285E-01
          0                12           1             4    7     1       0.1094818316E-03       4    7    1         0.5759686052E-02      0.1140576570E-01
          0                13           1             4    7     1       0.5120845958E-04       4    7    1         0.2694499622E-02      0.5305543366E-02

    ------------------------------------------------
       NWT REQUIRED           13 OUTER ITERATIONS 
       AND A TOTAL OF         24 INNER ITERATIONS.
    ------------------------------------------------

 NO OUTPUT CONTROL FOR STRESS PERIOD   43   TIME STEP   17
 
 SOLVING FOR HEAD 
     PET DIFF ERROR     6    4    0.2245355975E-08    0.1500000053E-06
     PET DIFF ERROR     6    5    0.2245359288E-08    0.1500000053E-06
     PET DIFF ERROR     7    4    0.2245362565E-08    0.1500000053E-06
     PET DIFF ERROR     7    5    0.2245355975E-08    0.1500000053E-06
     PET DIFF ERROR     8    4    0.2245359288E-08    0.1500000053E-06
     PET DIFF ERROR     8    5    0.2245355975E-08    0.1500000053E-06
                                                   Max.-Head-Change                         Max.-Flux-Residual
  Residual-Control   Outer-Iter.   Inner-Iter.     Column Row Layer    Maximum-Head-Change  Column Row Layer    Maximum-Flux-Residual          L2-NORM 
          0                 1           2             4    7     1       0.4494566855E+00       4    7    1         0.2359427707E+02      0.5052679365E+02
     PET DIFF ERROR     6    4    0.2245355975E-08    0.1500000053E-06
     PET DIFF ERROR     6    5    0.2245359288E-08    0.1500000053E-06
     PET DIFF ERROR     7    4    0.2245362565E-08    0.1500000053E-06
     PET DIFF ERROR     7    5    0.2245355975E-08    0.1500000053E-06
     PET DIFF ERROR     8    4    0.2245359288E-08    0.1500000053E-06
     PET DIFF ERROR     8    5    0.2245355975E-08    0.1500000053E-06
          0                 2           2             4    7     1       0.2107523371E+00       4    7    1         0.1106667544E+02      0.2331873666E+02
     PET DIFF ERROR     6    4    0.2245355975E-08    0.1500000053E-06
     PET DIFF ERROR     6    5    0.2245359288E-08    0.1500000053E-06
     PET DIFF ERROR     7    4    0.2245362565E-08    0.1500000053E-06
     PET DIFF ERROR     7    5    0.2245355975E-08    0.1500000053E-06
     PET DIFF ERROR     8    4    0.2245359288E-08    0.1500000053E-06
     PET DIFF ERROR     8    5    0.2245355975E-08    0.1500000053E-06
          0                 3           2             4    7     1       0.9879232524E-01       4    7    1         0.5188944899E+01      0.1083159131E+02
     PET DIFF ERROR     6    4    0.2245355975E-08    0.1500000053E-06
     PET DIFF ERROR     6    5    0.2245359288E-08    0.1500000053E-06
     PET DIFF ERROR     7    4    0.2245362565E-08    0.1500000053E-06
     PET DIFF ERROR     7    5    0.2245355975E-08    0.1500000053E-06
     PET DIFF ERROR     8    4    0.2245359288E-08    0.1500000053E-06
     PET DIFF ERROR     8    5    0.2245355975E-08    0.1500000053E-06
          0                 4           2             4    7     1       0.4629611353E-01       4    7    1         0.2432249824E+01      0.5035856786E+01
     PET DIFF ERROR     6    4    0.2245355975E-08    0.1500000053E-06
     PET DIFF ERROR     6    5    0.2245359288E-08    0.1500000053E-06
     PET DIFF ERROR     7    4    0.2245362565E-08    0.1500000053E-06
     PET DIFF ERROR     7    5    0.2245355975E-08    0.1500000053E-06
     PET DIFF ERROR     8    4    0.2245359288E-08    0.1500000053E-06
     PET DIFF ERROR     8    5    0.2245355975E-08    0.1500000053E-06
          0                 5           2             4    7     1       0.2168904665E-01       4    7    1         0.1139744414E+01      0.2340957413E+01
     PET DIFF ERROR     6    4    0.2245355975E-08    0.1500000053E-06
     PET DIFF ERROR     6    5    0.2245359288E-08    0.1500000053E-06
     PET DIFF ERROR     7    4    0.2245362565E-08    0.1500000053E-06
     PET DIFF ERROR     7    5    0.2245355975E-08    0.1500000053E-06
     PET DIFF ERROR     8    4    0.2245359288E-08    0.1500000053E-06
     PET DIFF ERROR     8    5    0.2245355975E-08    0.1500000053E-06
          0                 6           2             4    7     1       0.1015816008E-01       4    7    1         0.5339269011E+00      0.1088304495E+01
     PET DIFF ERROR     6    4    0.2245355975E-08    0.1500000053E-06
     PET DIFF ERROR     6    5    0.2245359288E-08    0.1500000053E-06
     PET DIFF ERROR     7    4    0.2245362565E-08    0.1500000053E-06
     PET DIFF ERROR     7    5    0.2245355975E-08    0.1500000053E-06
     PET DIFF ERROR     8    4    0.2245359288E-08    0.1500000053E-06
     PET DIFF ERROR     8    5    0.2245355975E-08    0.1500000053E-06
          0                 7           2             4    7     1       0.4756334064E-02       4    7    1         0.2500548714E+00      0.5059870028E+00
     PET DIFF ERROR     6    4    0.2245355975E-08    0.1500000053E-06
     PET DIFF ERROR     6    5    0.2245359288E-08    0.1500000053E-06
     PET DIFF ERROR     7    4    0.2245362565E-08    0.1500000053E-06
     PET DIFF ERROR     7    5    0.2245355975E-08    0.1500000053E-06
     PET DIFF ERROR     8    4    0.2245359288E-08    0.1500000053E-06
     PET DIFF ERROR     8    5    0.2245355975E-08    0.1500000053E-06
          0                 8           2             4    7     1       0.2226467606E-02       4    7    1         0.1170771590E+00      0.2352651133E+00
     PET DIFF ERROR     6    4    0.2245355975E-08    0.1500000053E-06
     PET DIFF ERROR     6    5    0.2245359288E-08    0.1500000053E-06
     PET DIFF ERROR     7    4    0.2245362565E-08    0.1500000053E-06
     PET DIFF ERROR     7    5    0.2245355975E-08    0.1500000053E-06
     PET DIFF ERROR     8    4    0.2245359288E-08    0.1500000053E-06
     PET DIFF ERROR     8    5    0.2245355975E-08    0.1500000053E-06
          0                 9           2             4    7     1       0.1041960209E-02       4    7    1         0.5480200253E-01      0.1093961986E+00
     PET DIFF ERROR     6    4    0.2245355975E-08    0.1500000053E-06
     PET DIFF ERROR     6    5    0.2245359288E-08    0.1500000053E-06
     PET DIFF ERROR     7    4    0.2245362565E-08    0.1500000053E-06
     PET DIFF ERROR     7    5    0.2245355975E-08    0.1500000053E-06
     PET DIFF ERROR     8    4    0.2245359288E-08    0.1500000053E-06
     PET DIFF ERROR     8    5    0.2245355975E-08    0.1500000053E-06
          0                10           2             4    7     1       0.4875066567E-03       4    7    1         0.2564555387E-01      0.5087108734E-01
     PET DIFF ERROR     6    4    0.2245355975E-08    0.1500000053E-06
     PET DIFF ERROR     6    5    0.2245359288E-08    0.1500000053E-06
     PET DIFF ERROR     7    4    0.2245362565E-08    0.1500000053E-06
     PET DIFF ERROR     7    5    0.2245355975E-08    0.1500000053E-06
     PET DIFF ERROR     8    4    0.2245359288E-08    0.1500000053E-06
     PET DIFF ERROR     8    5    0.2245355975E-08    0.1500000053E-06
                                                   Max.-Head-Change                         Max.-Flux-Residual
  Residual-Control   Outer-Iter.   Inner-Iter.     Column Row Layer    Maximum-Head-Change  Column Row Layer    Maximum-Flux-Residual          L2-NORM 
          0                11           2             4    7     1       0.2280386735E-03       4    7    1         0.1199839292E-01      0.2365711010E-01
     PET DIFF ERROR     6    4    0.2245355975E-08    0.1500000053E-06
     PET DIFF ERROR     6    5    0.2245359288E-08    0.1500000053E-06
     PET DIFF ERROR     7    4    0.2245362565E-08    0.1500000053E-06
     PET DIFF ERROR     7    5    0.2245355975E-08    0.1500000053E-06
     PET DIFF ERROR     8    4    0.2245359288E-08    0.1500000053E-06
     PET DIFF ERROR     8    5    0.2245355975E-08    0.1500000053E-06
          0                12           1             4    7     1       0.1066445855E-03       4    7    1         0.5612201941E-02      0.1100201532E-01
     PET DIFF ERROR     6    4    0.2245355975E-08    0.1500000053E-06
     PET DIFF ERROR     6    5    0.2245359288E-08    0.1500000053E-06
     PET DIFF ERROR     7    4    0.2245362565E-08    0.1500000053E-06
     PET DIFF ERROR     7    5    0.2245355975E-08    0.1500000053E-06
     PET DIFF ERROR     8    4    0.2245359288E-08    0.1500000053E-06
     PET DIFF ERROR     8    5    0.2245355975E-08    0.1500000053E-06
          0                13           1             4    7     1       0.4986262944E-04       4    7    1         0.2624499597E-02      0.5116828622E-02

    ------------------------------------------------
       NWT REQUIRED           13 OUTER ITERATIONS 
       AND A TOTAL OF         24 INNER ITERATIONS.
    ------------------------------------------------

 NO OUTPUT CONTROL FOR STRESS PERIOD   43   TIME STEP   18
     PET DIFF ERROR     6    4    0.2245355975E-08    0.1500000053E-06
     PET DIFF ERROR     6    5    0.2245359288E-08    0.1500000053E-06
     PET DIFF ERROR     7    4    0.2245362565E-08    0.1500000053E-06
     PET DIFF ERROR     7    5    0.2245355975E-08    0.1500000053E-06
     PET DIFF ERROR     8    4    0.2245359288E-08    0.1500000053E-06
     PET DIFF ERROR     8    5    0.2245355975E-08    0.1500000053E-06
 
 SOLVING FOR HEAD 
                                                   Max.-Head-Change                         Max.-Flux-Residual
  Residual-Control   Outer-Iter.   Inner-Iter.     Column Row Layer    Maximum-Head-Change  Column Row Layer    Maximum-Flux-Residual          L2-NORM 
          0                 1           2             4    8     1       0.7141394091E+00       4    8    1         0.3787036817E+02      0.7152686686E+02
          0                 2           2             4    6     1      -0.1667512397E+01       4    6    1        -0.9080064733E+02      0.2103408147E+03
          0                 3           2             5    7     1      -0.8704338376E+00       5    7    1        -0.4797677570E+02      0.8935937013E+02
          0                 4           2             5    8     1      -0.2197351195E+00       5    8    1        -0.1243520410E+02      0.1437802088E+02
          0                 5           2             5    8     1       0.1502079138E-01       5    8    1         0.8731292433E+00      0.9757042241E+00
          0                 6           2             5    8     1      -0.5979784651E-03       5    8    1        -0.3566908262E-01      0.3915197710E-01
          0                 7           1             5    8     1       0.7384274297E-05       5    8    1         0.4519805591E-03      0.4956276880E-03

    ------------------------------------------------
       NWT REQUIRED            7 OUTER ITERATIONS 
       AND A TOTAL OF         13 INNER ITERATIONS.
    ------------------------------------------------

 NO OUTPUT CONTROL FOR STRESS PERIOD   43   TIME STEP   19
 
 SOLVING FOR HEAD 
                                                   Max.-Head-Change                         Max.-Flux-Residual
  Residual-Control   Outer-Iter.   Inner-Iter.     Column Row Layer    Maximum-Head-Change  Column Row Layer    Maximum-Flux-Residual          L2-NORM 
          0                 1           2             4    7     1       0.2338469542E+00       4    7    1         0.1233155695E+02      0.2407124271E+02
          0                 2           2             4    7     1       0.3726368109E-01       4    7    1         0.2002317661E+01      0.2538657292E+01
          0                 3           2             4    7     1       0.6787620903E-01       4    7    1         0.3568935027E+01      0.7353375032E+01
          0                 4           2             4    7     1       0.3177017449E-01       4    7    1         0.1670716444E+01      0.3409142947E+01
          0                 5           2             4    7     1       0.1486771828E-01       4    7    1         0.7819736079E+00      0.1584618325E+01
          0                 6           2             4    7     1       0.6956510623E-02       4    7    1         0.3659345192E+00      0.7367476507E+00
          0                 7           2             4    7     1       0.3254326319E-02       4    7    1         0.1712130876E+00      0.3425696478E+00
          0                 8           2             4    7     1       0.1522136938E-02       4    7    1         0.8009271539E-01      0.1592982734E+00
          0                 9           2             4    7     1       0.7118198566E-03       4    7    1         0.3746037502E-01      0.7408017498E-01
          0                10           2             4    7     1       0.3328213960E-03       4    7    1         0.1751761990E-01      0.3445233999E-01
                                                   Max.-Head-Change                         Max.-Flux-Residual
  Residual-Control   Outer-Iter.   Inner-Iter.     Column Row Layer    Maximum-Head-Change  Column Row Layer    Maximum-Flux-Residual          L2-NORM 
          0                11           2             4    7     1       0.1555888151E-03       4    7    1         0.8190360574E-02      0.1602354576E-01
          0                12           1             4    7     1       0.7272318873E-04       4    7    1         0.3828751315E-02      0.7452798408E-02

    ------------------------------------------------
       NWT REQUIRED           12 OUTER ITERATIONS 
       AND A TOTAL OF         23 INNER ITERATIONS.
    ------------------------------------------------

 NO OUTPUT CONTROL FOR STRESS PERIOD   43   TIME STEP   20
 
 SOLVING FOR HEAD 
                                                   Max.-Head-Change                         Max.-Flux-Residual
  Residual-Control   Outer-Iter.   Inner-Iter.     Column Row Layer    Maximum-Head-Change  Column Row Layer    Maximum-Flux-Residual          L2-NORM 
          0                 1           2             4    7     1       0.4399097013E+00       4    7    1         0.2303958701E+02      0.5240090676E+02
          0                 2           2             4    7     1       0.2068435257E+00       4    7    1         0.1083701274E+02      0.2427111335E+02
          0                 3           2             4    7     1       0.9721280341E-01       4    7    1         0.5095157627E+01      0.1127228678E+02
          0                 4           2             4    7     1       0.4566846711E-01       4    7    1         0.2394446981E+01      0.5238629522E+01
          0                 5           2             4    7     1       0.2144513194E-01       4    7    1         0.1124775937E+01      0.2434787839E+01
          0                 6           2             4    7     1       0.1006625502E-01       4    7    1         0.5281375522E+00      0.1131764444E+01
          0                 7           2             4    7     1       0.4723254858E-02       4    7    1         0.2478884103E+00      0.5261318018E+00
          0                 8           2             4    7     1       0.2215420368E-02       4    7    1         0.1163056569E+00      0.2446095411E+00
          0                 9           2             4    7     1       0.1038769134E-02       4    7    1         0.5454914704E-01      0.1137336083E+00
          0                10           2             4    7     1       0.4868964649E-03       4    7    1         0.2557551480E-01      0.5288561713E-01
                                                   Max.-Head-Change                         Max.-Flux-Residual
  Residual-Control   Outer-Iter.   Inner-Iter.     Column Row Layer    Maximum-Head-Change  Column Row Layer    Maximum-Flux-Residual          L2-NORM 
          0                11           2             4    7     1       0.2281472379E-03       4    7    1         0.1198716902E-01      0.2459329286E-01
          0                12           1             4    7     1       0.1068712519E-03       4    7    1         0.5616567420E-02      0.1143729776E-01
          0                13           1             4    7     1       0.5004716612E-04       4    7    1         0.2630834112E-02      0.5319310628E-02

    ------------------------------------------------
       NWT REQUIRED           13 OUTER ITERATIONS 
       AND A TOTAL OF         24 INNER ITERATIONS.
    ------------------------------------------------

 NO OUTPUT CONTROL FOR STRESS PERIOD   43   TIME STEP   21
 
 SOLVING FOR HEAD 
     PET DIFF ERROR     6    4    0.2245355975E-08    0.1500000053E-06
     PET DIFF ERROR     6    5    0.2245362550E-08    0.1500000053E-06
     PET DIFF ERROR     7    4    0.2245362600E-08    0.1500000053E-06
     PET DIFF ERROR     7    5    0.2245362550E-08    0.1500000053E-06
     PET DIFF ERROR     8    4    0.2245355975E-08    0.1500000053E-06
     PET DIFF ERROR     8    5    0.2245355975E-08    0.1500000053E-06
                                                   Max.-Head-Change                         Max.-Flux-Residual
  Residual-Control   Outer-Iter.   Inner-Iter.     Column Row Layer    Maximum-Head-Change  Column Row Layer    Maximum-Flux-Residual          L2-NORM 
          0                 1           2             4    7     1       0.4321483794E+00       4    7    1         0.2264488459E+02      0.5064461756E+02
     PET DIFF ERROR     6    4    0.2245355975E-08    0.1500000053E-06
     PET DIFF ERROR     6    5    0.2245362550E-08    0.1500000053E-06
     PET DIFF ERROR     7    4    0.2245362600E-08    0.1500000053E-06
     PET DIFF ERROR     7    5    0.2245362550E-08    0.1500000053E-06
     PET DIFF ERROR     8    4    0.2245355975E-08    0.1500000053E-06
     PET DIFF ERROR     8    5    0.2245355975E-08    0.1500000053E-06
          0                 2           2             4    7     1       0.2030512812E+00       4    7    1         0.1064462524E+02      0.2342037636E+02
     PET DIFF ERROR     6    4    0.2245355975E-08    0.1500000053E-06
     PET DIFF ERROR     6    5    0.2245362550E-08    0.1500000053E-06
     PET DIFF ERROR     7    4    0.2245362600E-08    0.1500000053E-06
     PET DIFF ERROR     7    5    0.2245362550E-08    0.1500000053E-06
     PET DIFF ERROR     8    4    0.2245355975E-08    0.1500000053E-06
     PET DIFF ERROR     8    5    0.2245355975E-08    0.1500000053E-06
          0                 3           2             4    7     1       0.9531657767E-01       4    7    1         0.4999393524E+01      0.1087712360E+02
     PET DIFF ERROR     6    4    0.2245355975E-08    0.1500000053E-06
     PET DIFF ERROR     6    5    0.2245362550E-08    0.1500000053E-06
     PET DIFF ERROR     7    4    0.2245362600E-08    0.1500000053E-06
     PET DIFF ERROR     7    5    0.2245362550E-08    0.1500000053E-06
     PET DIFF ERROR     8    4    0.2245355975E-08    0.1500000053E-06
     PET DIFF ERROR     8    5    0.2245355975E-08    0.1500000053E-06
          0                 4           2             4    7     1       0.4473902072E-01       4    7    1         0.2347378320E+01      0.5055790867E+01
     PET DIFF ERROR     6    4    0.2245355975E-08    0.1500000053E-06
     PET DIFF ERROR     6    5    0.2245362550E-08    0.1500000053E-06
     PET DIFF ERROR     7    4    0.2245362600E-08    0.1500000053E-06
     PET DIFF ERROR     7    5    0.2245362550E-08    0.1500000053E-06
     PET DIFF ERROR     8    4    0.2245355975E-08    0.1500000053E-06
     PET DIFF ERROR     8    5    0.2245355975E-08    0.1500000053E-06
          0                 5           2             4    7     1       0.2099106212E-01       4    7    1         0.1101718011E+01      0.2350136932E+01
     PET DIFF ERROR     6    4    0.2245355975E-08    0.1500000053E-06
     PET DIFF ERROR     6    5    0.2245362550E-08    0.1500000053E-06
     PET DIFF ERROR     7    4    0.2245362600E-08    0.1500000053E-06
     PET DIFF ERROR     7    5    0.2245362550E-08    0.1500000053E-06
     PET DIFF ERROR     8    4    0.2245355975E-08    0.1500000053E-06
     PET DIFF ERROR     8    5    0.2245355975E-08    0.1500000053E-06
          0                 6           2             4    7     1       0.9845091416E-02       4    7    1         0.5168792147E+00      0.1092547417E+01
     PET DIFF ERROR     6    4    0.2245355975E-08    0.1500000053E-06
     PET DIFF ERROR     6    5    0.2245362550E-08    0.1500000053E-06
     PET DIFF ERROR     7    4    0.2245362600E-08    0.1500000053E-06
     PET DIFF ERROR     7    5    0.2245362550E-08    0.1500000053E-06
     PET DIFF ERROR     8    4    0.2245355975E-08    0.1500000053E-06
     PET DIFF ERROR     8    5    0.2245355975E-08    0.1500000053E-06
          0                 7           2             4    7     1       0.4615828662E-02       4    7    1         0.2424075735E+00      0.5079540637E+00
     PET DIFF ERROR     6    4    0.2245355975E-08    0.1500000053E-06
     PET DIFF ERROR     6    5    0.2245362550E-08    0.1500000053E-06
     PET DIFF ERROR     7    4    0.2245362600E-08    0.1500000053E-06
     PET DIFF ERROR     7    5    0.2245362550E-08    0.1500000053E-06
     PET DIFF ERROR     8    4    0.2245355975E-08    0.1500000053E-06
     PET DIFF ERROR     8    5    0.2245355975E-08    0.1500000053E-06
          0                 8           2             4    7     1       0.2163371453E-02       4    7    1         0.1136446716E+00      0.2361797136E+00
     PET DIFF ERROR     6    4    0.2245355975E-08    0.1500000053E-06
     PET DIFF ERROR     6    5    0.2245362550E-08    0.1500000053E-06
     PET DIFF ERROR     7    4    0.2245362600E-08    0.1500000053E-06
     PET DIFF ERROR     7    5    0.2245362550E-08    0.1500000053E-06
     PET DIFF ERROR     8    4    0.2245355975E-08    0.1500000053E-06
     PET DIFF ERROR     8    5    0.2245355975E-08    0.1500000053E-06
          0                 9           2             4    7     1       0.1013609389E-02       4    7    1         0.5326042427E-01      0.1098225767E+00
     PET DIFF ERROR     6    4    0.2245355975E-08    0.1500000053E-06
     PET DIFF ERROR     6    5    0.2245362550E-08    0.1500000053E-06
     PET DIFF ERROR     7    4    0.2245362600E-08    0.1500000053E-06
     PET DIFF ERROR     7    5    0.2245362550E-08    0.1500000053E-06
     PET DIFF ERROR     8    4    0.2245355975E-08    0.1500000053E-06
     PET DIFF ERROR     8    5    0.2245355975E-08    0.1500000053E-06
          0                10           2             4    7     1       0.4747605536E-03       4    7    1         0.2495280741E-01      0.5107034277E-01
     PET DIFF ERROR     6    4    0.2245355975E-08    0.1500000053E-06
     PET DIFF ERROR     6    5    0.2245362550E-08    0.1500000053E-06
     PET DIFF ERROR     7    4    0.2245362600E-08    0.1500000053E-06
     PET DIFF ERROR     7    5    0.2245362550E-08    0.1500000053E-06
     PET DIFF ERROR     8    4    0.2245355975E-08    0.1500000053E-06
     PET DIFF ERROR     8    5    0.2245355975E-08    0.1500000053E-06
                                                   Max.-Head-Change                         Max.-Flux-Residual
  Residual-Control   Outer-Iter.   Inner-Iter.     Column Row Layer    Maximum-Head-Change  Column Row Layer    Maximum-Flux-Residual          L2-NORM 
          0                11           2             4    7     1       0.2223049846E-03       4    7    1         0.1168691207E-01      0.2375043048E-01
     PET DIFF ERROR     6    4    0.2245355975E-08    0.1500000053E-06
     PET DIFF ERROR     6    5    0.2245362550E-08    0.1500000053E-06
     PET DIFF ERROR     7    4    0.2245362600E-08    0.1500000053E-06
     PET DIFF ERROR     7    5    0.2245362550E-08    0.1500000053E-06
     PET DIFF ERROR     8    4    0.2245355975E-08    0.1500000053E-06
     PET DIFF ERROR     8    5    0.2245355975E-08    0.1500000053E-06
          0                12           1             4    7     1       0.1040639230E-03       4    7    1         0.5472071522E-02      0.1104580743E-01
     PET DIFF ERROR     6    4    0.2245355975E-08    0.1500000053E-06
     PET DIFF ERROR     6    5    0.2245362550E-08    0.1500000053E-06
     PET DIFF ERROR     7    4    0.2245362600E-08    0.1500000053E-06
     PET DIFF ERROR     7    5    0.2245362550E-08    0.1500000053E-06
     PET DIFF ERROR     8    4    0.2245355975E-08    0.1500000053E-06
     PET DIFF ERROR     8    5    0.2245355975E-08    0.1500000053E-06
          0                13           1             4    7     1       0.4870047497E-04       4    7    1         0.2561422309E-02      0.5137414763E-02

    ------------------------------------------------
       NWT REQUIRED           13 OUTER ITERATIONS 
       AND A TOTAL OF         24 INNER ITERATIONS.
    ------------------------------------------------

 NO OUTPUT CONTROL FOR STRESS PERIOD   43   TIME STEP   22
     PET DIFF ERROR     6    4    0.2245355975E-08    0.1500000053E-06
     PET DIFF ERROR     6    5    0.2245362550E-08    0.1500000053E-06
     PET DIFF ERROR     7    4    0.2245362600E-08    0.1500000053E-06
     PET DIFF ERROR     7    5    0.2245362550E-08    0.1500000053E-06
     PET DIFF ERROR     8    4    0.2245355975E-08    0.1500000053E-06
     PET DIFF ERROR     8    5    0.2245355975E-08    0.1500000053E-06
 
 SOLVING FOR HEAD 
                                                   Max.-Head-Change                         Max.-Flux-Residual
  Residual-Control   Outer-Iter.   Inner-Iter.     Column Row Layer    Maximum-Head-Change  Column Row Layer    Maximum-Flux-Residual          L2-NORM 
          0                 1           2             4    8     1       0.7224620590E+00       4    8    1         0.3835375955E+02      0.7210363599E+02
          0                 2           2             4    6     1      -0.1666592334E+01       4    6    1        -0.9073688279E+02      0.2104483762E+03
          0                 3           2             5    7     1      -0.8828073582E+00       5    7    1        -0.4870135257E+02      0.8929658854E+02
          0                 4           2             5    8     1      -0.2273454450E+00       5    8    1        -0.1285861363E+02      0.1498133990E+02
          0                 5           2             5    8     1       0.1563008399E-01       5    8    1         0.9080900595E+00      0.1028044833E+01
          0                 6           2             5    8     1      -0.6222342878E-03       5    8    1        -0.3709658370E-01      0.4127292526E-01
          0                 7           1             5    8     1       0.7683803372E-05       5    8    1         0.4700603940E-03      0.5224261655E-03

    ------------------------------------------------
       NWT REQUIRED            7 OUTER ITERATIONS 
       AND A TOTAL OF         13 INNER ITERATIONS.
    ------------------------------------------------

 NO OUTPUT CONTROL FOR STRESS PERIOD   43   TIME STEP   23
 
 SOLVING FOR HEAD 
                                                   Max.-Head-Change                         Max.-Flux-Residual
  Residual-Control   Outer-Iter.   Inner-Iter.     Column Row Layer    Maximum-Head-Change  Column Row Layer    Maximum-Flux-Residual          L2-NORM 
          0                 1           2             4    7     1       0.2113789564E+00       4    7    1         0.1110217564E+02      0.2416552970E+02
          0                 2           2             4    7     1       0.2724071097E-01       4    7    1         0.1454112279E+01      0.2302886636E+01
          0                 3           2             4    7     1       0.6340279567E-01       4    7    1         0.3324349253E+01      0.7410305474E+01
          0                 4           2             4    7     1       0.2977291819E-01       4    7    1         0.1561545769E+01      0.3433461974E+01
          0                 5           2             4    7     1       0.1397569039E-01       4    7    1         0.7332285205E+00      0.1594984801E+01
          0                 6           2             4    7     1       0.6557961681E-02       4    7    1         0.3441622263E+00      0.7411642988E+00
          0                 7           2             4    7     1       0.3076190128E-02       4    7    1         0.1614847805E+00      0.3444505708E+00
          0                 8           2             4    7     1       0.1442484589E-02       4    7    1         0.7574422118E-01      0.1600988653E+00
          0                 9           2             4    7     1       0.6761887295E-03       4    7    1         0.3551583052E-01      0.7442070645E-01
          0                10           2             4    7     1       0.3168753278E-03       4    7    1         0.1664769271E-01      0.3459706481E-01
                                                   Max.-Head-Change                         Max.-Flux-Residual
  Residual-Control   Outer-Iter.   Inner-Iter.     Column Row Layer    Maximum-Head-Change  Column Row Layer    Maximum-Flux-Residual          L2-NORM 
          0                11           2             4    7     1       0.1484491266E-03       4    7    1         0.7801008456E-02      0.1608499142E-01
          0                12           1             4    7     1       0.6952492015E-04       4    7    1         0.3654408001E-02      0.7478854662E-02

    ------------------------------------------------
       NWT REQUIRED           12 OUTER ITERATIONS 
       AND A TOTAL OF         23 INNER ITERATIONS.
    ------------------------------------------------

 NO OUTPUT CONTROL FOR STRESS PERIOD   43   TIME STEP   24
 
 SOLVING FOR HEAD 
                                                   Max.-Head-Change                         Max.-Flux-Residual
  Residual-Control   Outer-Iter.   Inner-Iter.     Column Row Layer    Maximum-Head-Change  Column Row Layer    Maximum-Flux-Residual          L2-NORM 
          0                 1           2             4    7     1       0.4273740868E+00       4    7    1         0.2235461373E+02      0.5252176557E+02
          0                 2           2             4    7     1       0.2012354241E+00       4    7    1         0.1053107828E+02      0.2434284117E+02
          0                 3           2             4    7     1       0.9470139232E-01       4    7    1         0.4958231684E+01      0.1130384994E+02
          0                 4           2             4    7     1       0.4454265020E-01       4    7    1         0.2333119468E+01      0.5251944324E+01
          0                 5           2             4    7     1       0.2093991337E-01       4    7    1         0.1097278254E+01      0.2440403347E+01
          0                 6           2             4    7     1       0.9839286854E-02       4    7    1         0.5157953399E+00      0.1134127122E+01
          0                 7           2             4    7     1       0.4621175957E-02       4    7    1         0.2423425816E+00      0.5271232655E+00
          0                 8           2             4    7     1       0.2169458002E-02       4    7    1         0.1138109101E+00      0.2450242711E+00
          0                 9           2             4    7     1       0.1018049945E-02       4    7    1         0.5342562032E-01      0.1139064228E+00
          0                10           2             4    7     1       0.4775455466E-03       4    7    1         0.2506893760E-01      0.5295729089E-01
                                                   Max.-Head-Change                         Max.-Flux-Residual
  Residual-Control   Outer-Iter.   Inner-Iter.     Column Row Layer    Maximum-Head-Change  Column Row Layer    Maximum-Flux-Residual          L2-NORM 
          0                11           2             4    7     1       0.2239219861E-03       4    7    1         0.1175849324E-01      0.2462284911E-01
          0                12           1             4    7     1       0.1049597626E-03       4    7    1         0.5513216965E-02      0.1144939984E-01
          0                13           1             4    7     1       0.4918137173E-04       4    7    1         0.2584068545E-02      0.5324222179E-02

    ------------------------------------------------
       NWT REQUIRED           13 OUTER ITERATIONS 
       AND A TOTAL OF         24 INNER ITERATIONS.
    ------------------------------------------------

 NO OUTPUT CONTROL FOR STRESS PERIOD   43   TIME STEP   25
 
 SOLVING FOR HEAD 
     PET DIFF ERROR     6    4    0.2245356025E-08    0.1500000053E-06
     PET DIFF ERROR     6    5    0.2245355975E-08    0.1500000053E-06
     PET DIFF ERROR     7    4    0.2245359263E-08    0.1500000053E-06
     PET DIFF ERROR     7    5    0.2245362600E-08    0.1500000053E-06
     PET DIFF ERROR     8    4    0.2245356000E-08    0.1500000053E-06
     PET DIFF ERROR     8    5    0.2245355990E-08    0.1500000053E-06
                                                   Max.-Head-Change                         Max.-Flux-Residual
  Residual-Control   Outer-Iter.   Inner-Iter.     Column Row Layer    Maximum-Head-Change  Column Row Layer    Maximum-Flux-Residual          L2-NORM 
          0                 1           2             4    7     1       0.4208003746E+00       4    7    1         0.2202568804E+02      0.5070464712E+02
     PET DIFF ERROR     6    4    0.2245356025E-08    0.1500000053E-06
     PET DIFF ERROR     6    5    0.2245355975E-08    0.1500000053E-06
     PET DIFF ERROR     7    4    0.2245359263E-08    0.1500000053E-06
     PET DIFF ERROR     7    5    0.2245362600E-08    0.1500000053E-06
     PET DIFF ERROR     8    4    0.2245356000E-08    0.1500000053E-06
     PET DIFF ERROR     8    5    0.2245355990E-08    0.1500000053E-06
          0                 2           2             4    7     1       0.1979653324E+00       4    7    1         0.1036758437E+02      0.2347586532E+02
     PET DIFF ERROR     6    4    0.2245356025E-08    0.1500000053E-06
     PET DIFF ERROR     6    5    0.2245355975E-08    0.1500000053E-06
     PET DIFF ERROR     7    4    0.2245359263E-08    0.1500000053E-06
     PET DIFF ERROR     7    5    0.2245362600E-08    0.1500000053E-06
     PET DIFF ERROR     8    4    0.2245356000E-08    0.1500000053E-06
     PET DIFF ERROR     8    5    0.2245355990E-08    0.1500000053E-06
          0                 3           2             4    7     1       0.9308405949E-01       4    7    1         0.4876893559E+01      0.1090173961E+02
     PET DIFF ERROR     6    4    0.2245356025E-08    0.1500000053E-06
     PET DIFF ERROR     6    5    0.2245355975E-08    0.1500000053E-06
     PET DIFF ERROR     7    4    0.2245359263E-08    0.1500000053E-06
     PET DIFF ERROR     7    5    0.2245362600E-08    0.1500000053E-06
     PET DIFF ERROR     8    4    0.2245356000E-08    0.1500000053E-06
     PET DIFF ERROR     8    5    0.2245355990E-08    0.1500000053E-06
          0                 4           2             4    7     1       0.4374675786E-01       4    7    1         0.2292939348E+01      0.5066135736E+01
     PET DIFF ERROR     6    4    0.2245356025E-08    0.1500000053E-06
     PET DIFF ERROR     6    5    0.2245355975E-08    0.1500000053E-06
     PET DIFF ERROR     7    4    0.2245359263E-08    0.1500000053E-06
     PET DIFF ERROR     7    5    0.2245362600E-08    0.1500000053E-06
     PET DIFF ERROR     8    4    0.2245356000E-08    0.1500000053E-06
     PET DIFF ERROR     8    5    0.2245355990E-08    0.1500000053E-06
          0                 5           2             4    7     1       0.2054998253E-01       4    7    1         0.1077521039E+01      0.2354475790E+01
     PET DIFF ERROR     6    4    0.2245356025E-08    0.1500000053E-06
     PET DIFF ERROR     6    5    0.2245355975E-08    0.1500000053E-06
     PET DIFF ERROR     7    4    0.2245359263E-08    0.1500000053E-06
     PET DIFF ERROR     7    5    0.2245362600E-08    0.1500000053E-06
     PET DIFF ERROR     8    4    0.2245356000E-08    0.1500000053E-06
     PET DIFF ERROR     8    5    0.2245355990E-08    0.1500000053E-06
          0                 6           2             4    7     1       0.9648995842E-02       4    7    1         0.5061229116E+00      0.1094364937E+01
     PET DIFF ERROR     6    4    0.2245356025E-08    0.1500000053E-06
     PET DIFF ERROR     6    5    0.2245355975E-08    0.1500000053E-06
     PET DIFF ERROR     7    4    0.2245359263E-08    0.1500000053E-06
     PET DIFF ERROR     7    5    0.2245362600E-08    0.1500000053E-06
     PET DIFF ERROR     8    4    0.2245356000E-08    0.1500000053E-06
     PET DIFF ERROR     8    5    0.2245355990E-08    0.1500000053E-06
          0                 7           2             4    7     1       0.4528635714E-02       4    7    1         0.2376253900E+00      0.5087137249E+00
     PET DIFF ERROR     6    4    0.2245356025E-08    0.1500000053E-06
     PET DIFF ERROR     6    5    0.2245355975E-08    0.1500000053E-06
     PET DIFF ERROR     7    4    0.2245359263E-08    0.1500000053E-06
     PET DIFF ERROR     7    5    0.2245362600E-08    0.1500000053E-06
     PET DIFF ERROR     8    4    0.2245356000E-08    0.1500000053E-06
     PET DIFF ERROR     8    5    0.2245355990E-08    0.1500000053E-06
          0                 8           2             4    7     1       0.2124595732E-02       4    7    1         0.1115182382E+00      0.2364965014E+00
     PET DIFF ERROR     6    4    0.2245356025E-08    0.1500000053E-06
     PET DIFF ERROR     6    5    0.2245355975E-08    0.1500000053E-06
     PET DIFF ERROR     7    4    0.2245359263E-08    0.1500000053E-06
     PET DIFF ERROR     7    5    0.2245362600E-08    0.1500000053E-06
     PET DIFF ERROR     8    4    0.2245356000E-08    0.1500000053E-06
     PET DIFF ERROR     8    5    0.2245355990E-08    0.1500000053E-06
          0                 9           2             4    7     1       0.9963627007E-03       4    7    1         0.5231474793E-01      0.1099543251E+00
     PET DIFF ERROR     6    4    0.2245356025E-08    0.1500000053E-06
     PET DIFF ERROR     6    5    0.2245355975E-08    0.1500000053E-06
     PET DIFF ERROR     7    4    0.2245359263E-08    0.1500000053E-06
     PET DIFF ERROR     7    5    0.2245362600E-08    0.1500000053E-06
     PET DIFF ERROR     8    4    0.2245356000E-08    0.1500000053E-06
     PET DIFF ERROR     8    5    0.2245355990E-08    0.1500000053E-06
          0                10           2             4    7     1       0.4670883307E-03       4    7    1         0.2453217682E-01      0.5112496528E-01
     PET DIFF ERROR     6    4    0.2245356025E-08    0.1500000053E-06
     PET DIFF ERROR     6    5    0.2245355975E-08    0.1500000053E-06
     PET DIFF ERROR     7    4    0.2245359263E-08    0.1500000053E-06
     PET DIFF ERROR     7    5    0.2245362600E-08    0.1500000053E-06
     PET DIFF ERROR     8    4    0.2245356000E-08    0.1500000053E-06
     PET DIFF ERROR     8    5    0.2245355990E-08    0.1500000053E-06
                                                   Max.-Head-Change                         Max.-Flux-Residual
  Residual-Control   Outer-Iter.   Inner-Iter.     Column Row Layer    Maximum-Head-Change  Column Row Layer    Maximum-Flux-Residual          L2-NORM 
          0                11           2             4    7     1       0.2188914134E-03       4    7    1         0.1149978817E-01      0.2377299520E-01
     PET DIFF ERROR     6    4    0.2245356025E-08    0.1500000053E-06
     PET DIFF ERROR     6    5    0.2245355975E-08    0.1500000053E-06
     PET DIFF ERROR     7    4    0.2245359263E-08    0.1500000053E-06
     PET DIFF ERROR     7    5    0.2245362600E-08    0.1500000053E-06
     PET DIFF ERROR     8    4    0.2245356000E-08    0.1500000053E-06
     PET DIFF ERROR     8    5    0.2245355990E-08    0.1500000053E-06
          0                12           1             4    7     1       0.1025448747E-03       4    7    1         0.5388812677E-02      0.1105508971E-01
     PET DIFF ERROR     6    4    0.2245356025E-08    0.1500000053E-06
     PET DIFF ERROR     6    5    0.2245355975E-08    0.1500000053E-06
     PET DIFF ERROR     7    4    0.2245359263E-08    0.1500000053E-06
     PET DIFF ERROR     7    5    0.2245362600E-08    0.1500000053E-06
     PET DIFF ERROR     8    4    0.2245356000E-08    0.1500000053E-06
     PET DIFF ERROR     8    5    0.2245355990E-08    0.1500000053E-06
          0                13           1             4    7     1       0.4802437330E-04       4    7    1         0.2524370717E-02      0.5141213207E-02

    ------------------------------------------------
       NWT REQUIRED           13 OUTER ITERATIONS 
       AND A TOTAL OF         24 INNER ITERATIONS.
    ------------------------------------------------

 NO OUTPUT CONTROL FOR STRESS PERIOD   43   TIME STEP   26
     PET DIFF ERROR     6    4    0.2245356025E-08    0.1500000053E-06
     PET DIFF ERROR     6    5    0.2245355975E-08    0.1500000053E-06
     PET DIFF ERROR     7    4    0.2245359263E-08    0.1500000053E-06
     PET DIFF ERROR     7    5    0.2245362600E-08    0.1500000053E-06
     PET DIFF ERROR     8    4    0.2245356000E-08    0.1500000053E-06
     PET DIFF ERROR     8    5    0.2245355990E-08    0.1500000053E-06
 
 SOLVING FOR HEAD 
                                                   Max.-Head-Change                         Max.-Flux-Residual
  Residual-Control   Outer-Iter.   Inner-Iter.     Column Row Layer    Maximum-Head-Change  Column Row Layer    Maximum-Flux-Residual          L2-NORM 
          0                 1           2             4    8     1       0.7326362704E+00       4    8    1         0.3891257205E+02      0.7268988532E+02
          0                 2           2             4    6     1      -0.1665244228E+01       4    6    1        -0.9071111102E+02      0.2104290997E+03
          0                 3           2             5    7     1      -0.8978470662E+00       5    7    1        -0.4956032670E+02      0.8950231631E+02
          0                 4           2             5    8     1      -0.2319945039E+00       5    8    1        -0.1312355824E+02      0.1551823482E+02
          0                 5           2             5    8     1       0.1580197504E-01       5    8    1         0.9173820499E+00      0.1053391592E+01
          0                 6           2             5    8     1      -0.6290770954E-03       5    8    1        -0.3747963903E-01      0.4238500372E-01
          0                 7           1             5    8     1       0.7768303665E-05       5    8    1         0.4749570787E-03      0.5366039169E-03

    ------------------------------------------------
       NWT REQUIRED            7 OUTER ITERATIONS 
       AND A TOTAL OF         13 INNER ITERATIONS.
    ------------------------------------------------

 NO OUTPUT CONTROL FOR STRESS PERIOD   43   TIME STEP   27
 
 SOLVING FOR HEAD 
                                                   Max.-Head-Change                         Max.-Flux-Residual
  Residual-Control   Outer-Iter.   Inner-Iter.     Column Row Layer    Maximum-Head-Change  Column Row Layer    Maximum-Flux-Residual          L2-NORM 
          0                 1           2             4    7     1       0.1967942532E+00       4    7    1         0.1030155746E+02      0.2424170315E+02
          0                 2           2             4    7     1       0.2075991715E-01       4    7    1         0.1098516271E+01      0.2256058010E+01
          0                 3           2             4    7     1       0.6052190095E-01       4    7    1         0.3166315146E+01      0.7442800832E+01
          0                 4           2             4    7     1       0.2849207482E-01       4    7    1         0.1491291577E+01      0.3446975775E+01
          0                 5           2             4    7     1       0.1340615478E-01       4    7    1         0.7019925424E+00      0.1600571616E+01
          0                 6           2             4    7     1       0.6304679864E-02       4    7    1         0.3302725709E+00      0.7434650076E+00
          0                 7           2             4    7     1       0.2963535898E-02       4    7    1         0.1553076608E+00      0.3453937555E+00
          0                 8           2             4    7     1       0.1392371229E-02       4    7    1         0.7299670069E-01      0.1604834710E+00
          0                 9           2             4    7     1       0.6538928649E-03       4    7    1         0.3429358446E-01      0.7457654458E-01
          0                10           2             4    7     1       0.3069541724E-03       4    7    1         0.1610388986E-01      0.3465972546E-01
                                                   Max.-Head-Change                         Max.-Flux-Residual
  Residual-Control   Outer-Iter.   Inner-Iter.     Column Row Layer    Maximum-Head-Change  Column Row Layer    Maximum-Flux-Residual          L2-NORM 
          0                11           2             4    7     1       0.1440337290E-03       4    7    1         0.7559021548E-02      0.1610994983E-01
          0                12           1             4    7     1       0.6755952732E-04       4    7    1         0.3546708865E-02      0.7488678954E-02

    ------------------------------------------------
       NWT REQUIRED           12 OUTER ITERATIONS 
       AND A TOTAL OF         23 INNER ITERATIONS.
    ------------------------------------------------

 NO OUTPUT CONTROL FOR STRESS PERIOD   43   TIME STEP   28
 
 SOLVING FOR HEAD 
                                                   Max.-Head-Change                         Max.-Flux-Residual
  Residual-Control   Outer-Iter.   Inner-Iter.     Column Row Layer    Maximum-Head-Change  Column Row Layer    Maximum-Flux-Residual          L2-NORM 
          0                 1           2             4    7     1       0.4193250768E+00       4    7    1         0.2191319183E+02      0.5257422245E+02
          0                 2           2             4    7     1       0.1976528714E+00       4    7    1         0.1033480201E+02      0.2437619406E+02
          0                 3           2             4    7     1       0.9310649337E-01       4    7    1         0.4870845307E+01      0.1131821118E+02
          0                 4           2             4    7     1       0.4383246926E-01       4    7    1         0.2294215852E+01      0.5257764570E+01
          0                 5           2             4    7     1       0.2062361034E-01       4    7    1         0.1079954093E+01      0.2442731128E+01
          0                 6           2             4    7     1       0.9698377593E-02       4    7    1         0.5080791008E+00      0.1135050084E+01
          0                 7           2             4    7     1       0.4558387327E-02       4    7    1         0.2389049303E+00      0.5274840401E+00
          0                 8           2             4    7     1       0.2141472616E-02       4    7    1         0.1122790360E+00      0.2451628296E+00
          0                 9           2             4    7     1       0.1005573409E-02       4    7    1         0.5274282014E-01      0.1139583680E+00
          0                10           2             4    7     1       0.4719817279E-03       4    7    1         0.2476451480E-01      0.5297610807E-01
                                                   Max.-Head-Change                         Max.-Flux-Residual
  Residual-Control   Outer-Iter.   Inner-Iter.     Column Row Layer    Maximum-Head-Change  Column Row Layer    Maximum-Flux-Residual          L2-NORM 
          0                11           2             4    7     1       0.2214401565E-03       4    7    1         0.1162273145E-01      0.2462931641E-01
          0                12           1             4    7     1       0.1038523864E-03       4    7    1         0.5452655167E-02      0.1145143051E-01
          0                13           1             4    7     1       0.4868712242E-04       4    7    1         0.2557044863E-02      0.5324748412E-02

    ------------------------------------------------
       NWT REQUIRED           13 OUTER ITERATIONS 
       AND A TOTAL OF         24 INNER ITERATIONS.
    ------------------------------------------------

 NO OUTPUT CONTROL FOR STRESS PERIOD   43   TIME STEP   29
 
 SOLVING FOR HEAD 
     PET DIFF ERROR     6    4    0.2245356025E-08    0.1500000053E-06
     PET DIFF ERROR     6    5    0.2245355975E-08    0.1500000053E-06
     PET DIFF ERROR     7    4    0.2245362558E-08    0.1500000053E-06
     PET DIFF ERROR     7    5    0.2245355982E-08    0.1500000053E-06
     PET DIFF ERROR     8    4    0.2245359263E-08    0.1500000053E-06
     PET DIFF ERROR     8    5    0.2245355975E-08    0.1500000053E-06
                                                   Max.-Head-Change                         Max.-Flux-Residual
  Residual-Control   Outer-Iter.   Inner-Iter.     Column Row Layer    Maximum-Head-Change  Column Row Layer    Maximum-Flux-Residual          L2-NORM 
          0                 1           2             4    7     1       0.4135810299E+00       4    7    1         0.2162995114E+02      0.5071509698E+02
     PET DIFF ERROR     6    4    0.2245356025E-08    0.1500000053E-06
     PET DIFF ERROR     6    5    0.2245355975E-08    0.1500000053E-06
     PET DIFF ERROR     7    4    0.2245362558E-08    0.1500000053E-06
     PET DIFF ERROR     7    5    0.2245355982E-08    0.1500000053E-06
     PET DIFF ERROR     8    4    0.2245359263E-08    0.1500000053E-06
     PET DIFF ERROR     8    5    0.2245355975E-08    0.1500000053E-06
          0                 2           2             4    7     1       0.1947501620E+00       4    7    1         0.1019152050E+02      0.2349838192E+02
     PET DIFF ERROR     6    4    0.2245356025E-08    0.1500000053E-06
     PET DIFF ERROR     6    5    0.2245355975E-08    0.1500000053E-06
     PET DIFF ERROR     7    4    0.2245362558E-08    0.1500000053E-06
     PET DIFF ERROR     7    5    0.2245355982E-08    0.1500000053E-06
     PET DIFF ERROR     8    4    0.2245359263E-08    0.1500000053E-06
     PET DIFF ERROR     8    5    0.2245355975E-08    0.1500000053E-06
          0                 3           2             4    7     1       0.9165183985E-01       4    7    1         0.4798459826E+01      0.1091145162E+02
     PET DIFF ERROR     6    4    0.2245356025E-08    0.1500000053E-06
     PET DIFF ERROR     6    5    0.2245355975E-08    0.1500000053E-06
     PET DIFF ERROR     7    4    0.2245362558E-08    0.1500000053E-06
     PET DIFF ERROR     7    5    0.2245355982E-08    0.1500000053E-06
     PET DIFF ERROR     8    4    0.2245359263E-08    0.1500000053E-06
     PET DIFF ERROR     8    5    0.2245355975E-08    0.1500000053E-06
          0                 4           2             4    7     1       0.4310861284E-01       4    7    1         0.2257999935E+01      0.5069940601E+01
     PET DIFF ERROR     6    4    0.2245356025E-08    0.1500000053E-06
     PET DIFF ERROR     6    5    0.2245355975E-08    0.1500000053E-06
     PET DIFF ERROR     7    4    0.2245362558E-08    0.1500000053E-06
     PET DIFF ERROR     7    5    0.2245355982E-08    0.1500000053E-06
     PET DIFF ERROR     8    4    0.2245359263E-08    0.1500000053E-06
     PET DIFF ERROR     8    5    0.2245355975E-08    0.1500000053E-06
          0                 5           2             4    7     1       0.2026557775E-01       4    7    1         0.1061952307E+01      0.2355926572E+01
     PET DIFF ERROR     6    4    0.2245356025E-08    0.1500000053E-06
     PET DIFF ERROR     6    5    0.2245355975E-08    0.1500000053E-06
     PET DIFF ERROR     7    4    0.2245362558E-08    0.1500000053E-06
     PET DIFF ERROR     7    5    0.2245355982E-08    0.1500000053E-06
     PET DIFF ERROR     8    4    0.2245359263E-08    0.1500000053E-06
     PET DIFF ERROR     8    5    0.2245355975E-08    0.1500000053E-06
          0                 6           2             4    7     1       0.9522211428E-02       4    7    1         0.4991839977E+00      0.1094906091E+01
     PET DIFF ERROR     6    4    0.2245356025E-08    0.1500000053E-06
     PET DIFF ERROR     6    5    0.2245355975E-08    0.1500000053E-06
     PET DIFF ERROR     7    4    0.2245362558E-08    0.1500000053E-06
     PET DIFF ERROR     7    5    0.2245355982E-08    0.1500000053E-06
     PET DIFF ERROR     8    4    0.2245359263E-08    0.1500000053E-06
     PET DIFF ERROR     8    5    0.2245355975E-08    0.1500000053E-06
          0                 7           2             4    7     1       0.4472101661E-02       4    7    1         0.2345319467E+00      0.5089080397E+00
     PET DIFF ERROR     6    4    0.2245356025E-08    0.1500000053E-06
     PET DIFF ERROR     6    5    0.2245355975E-08    0.1500000053E-06
     PET DIFF ERROR     7    4    0.2245362558E-08    0.1500000053E-06
     PET DIFF ERROR     7    5    0.2245355982E-08    0.1500000053E-06
     PET DIFF ERROR     8    4    0.2245359263E-08    0.1500000053E-06
     PET DIFF ERROR     8    5    0.2245355975E-08    0.1500000053E-06
          0                 8           2             4    7     1       0.2099379886E-02       4    7    1         0.1101387817E+00      0.2365623918E+00
     PET DIFF ERROR     6    4    0.2245356025E-08    0.1500000053E-06
     PET DIFF ERROR     6    5    0.2245355975E-08    0.1500000053E-06
     PET DIFF ERROR     7    4    0.2245362558E-08    0.1500000053E-06
     PET DIFF ERROR     7    5    0.2245355982E-08    0.1500000053E-06
     PET DIFF ERROR     8    4    0.2245359263E-08    0.1500000053E-06
     PET DIFF ERROR     8    5    0.2245355975E-08    0.1500000053E-06
          0                 9           2             4    7     1       0.9851125045E-03       4    7    1         0.5169943846E-01      0.1099745017E+00
     PET DIFF ERROR     6    4    0.2245356025E-08    0.1500000053E-06
     PET DIFF ERROR     6    5    0.2245355975E-08    0.1500000053E-06
     PET DIFF ERROR     7    4    0.2245362558E-08    0.1500000053E-06
     PET DIFF ERROR     7    5    0.2245355982E-08    0.1500000053E-06
     PET DIFF ERROR     8    4    0.2245359263E-08    0.1500000053E-06
     PET DIFF ERROR     8    5    0.2245355975E-08    0.1500000053E-06
          0                10           2             4    7     1       0.4620675184E-03       4    7    1         0.2425763851E-01      0.5112987345E-01
     PET DIFF ERROR     6    4    0.2245356025E-08    0.1500000053E-06
     PET DIFF ERROR     6    5    0.2245355975E-08    0.1500000053E-06
     PET DIFF ERROR     7    4    0.2245362558E-08    0.1500000053E-06
     PET DIFF ERROR     7    5    0.2245355982E-08    0.1500000053E-06
     PET DIFF ERROR     8    4    0.2245359263E-08    0.1500000053E-06
     PET DIFF ERROR     8    5    0.2245355975E-08    0.1500000053E-06
                                                   Max.-Head-Change                         Max.-Flux-Residual
  Residual-Control   Outer-Iter.   Inner-Iter.     Column Row Layer    Maximum-Head-Change  Column Row Layer    Maximum-Flux-Residual          L2-NORM 
          0                11           2             4    7     1       0.2166500141E-03       4    7    1         0.1137725878E-01      0.2377336287E-01
     PET DIFF ERROR     6    4    0.2245356025E-08    0.1500000053E-06
     PET DIFF ERROR     6    5    0.2245355975E-08    0.1500000053E-06
     PET DIFF ERROR     7    4    0.2245362558E-08    0.1500000053E-06
     PET DIFF ERROR     7    5    0.2245355982E-08    0.1500000053E-06
     PET DIFF ERROR     8    4    0.2245359263E-08    0.1500000053E-06
     PET DIFF ERROR     8    5    0.2245355975E-08    0.1500000053E-06
          0                12           1             4    7     1       0.1015439522E-03       4    7    1         0.5334109840E-02      0.1105444078E-01
     PET DIFF ERROR     6    4    0.2245356025E-08    0.1500000053E-06
     PET DIFF ERROR     6    5    0.2245355975E-08    0.1500000053E-06
     PET DIFF ERROR     7    4    0.2245362558E-08    0.1500000053E-06
     PET DIFF ERROR     7    5    0.2245355982E-08    0.1500000053E-06
     PET DIFF ERROR     8    4    0.2245359263E-08    0.1500000053E-06
     PET DIFF ERROR     8    5    0.2245355975E-08    0.1500000053E-06
          0                13           1             4    7     1       0.4757725591E-04       4    7    1         0.2499941137E-02      0.5140560951E-02

    ------------------------------------------------
       NWT REQUIRED           13 OUTER ITERATIONS 
       AND A TOTAL OF         24 INNER ITERATIONS.
    ------------------------------------------------

 NO OUTPUT CONTROL FOR STRESS PERIOD   43   TIME STEP   30



 STREAM LISTING     PERIOD     43   STEP       30

 LAYER ROW COL. STREAM  RCH.  FLOW INTO     FLOW TO   FLOW OUT OF   OVRLND.     DIRECT     STREAM       STREAM     STREAM     STREAM   STREAMBED  STREAMBED
                SEG.NO.  NO.  STRM. RCH.    AQUIFER    STRM. RCH.    RUNOFF     PRECIP       ET          HEAD       DEPTH      WIDTH   CONDCTNC.   GRADIENT

   1    1    1     1     1    4.3499E+01  3.1564E-01   4.3183E+01  0.000E+00  0.000E+00  0.000E+00  1.09440E+03  1.356E+00  1.610E+01  7.246E-02  1.452E+00
   1    2    2     1     2    4.3183E+01  4.8894E-01   4.2694E+01  0.000E+00  0.000E+00  0.000E+00  1.08941E+03  1.354E+00  1.604E+01  1.123E-01  1.451E+00
   1    3    3     1     3    4.2694E+01  4.1710E-01   4.2277E+01  0.000E+00  0.000E+00  0.000E+00  1.08377E+03  1.350E+00  1.598E+01  9.588E-02  1.450E+00
   1    3    4     1     4    4.2277E+01  3.8418E-01   4.1893E+01  0.000E+00  0.000E+00  0.000E+00  1.07876E+03  1.347E+00  1.592E+01  8.837E-02  1.449E+00
   1    4    5     2     1    3.9893E+01  3.5834E-01   3.9534E+01  0.000E+00  0.000E+00  0.000E+00  1.07353E+03  1.594E+00  1.200E+01  7.800E-02  1.531E+00
   1    5    6     2     2    3.9534E+01  2.7519E-01   3.9259E+01  0.000E+00  0.000E+00  0.000E+00  1.06810E+03  1.586E+00  1.200E+01  6.000E-02  1.529E+00
   1    6    6     2     3    3.9259E+01  2.7479E-01   3.8985E+01  0.000E+00  0.000E+00  0.000E+00  1.06337E+03  1.580E+00  1.200E+01  6.000E-02  1.527E+00
   1    7    6     2     4    3.8985E+01  2.7439E-01   3.8710E+01  0.000E+00  0.000E+00  0.000E+00  1.05865E+03  1.573E+00  1.200E+01  6.000E-02  1.524E+00
   1    8    6     2     5    3.8710E+01  2.7399E-01   3.8436E+01  0.000E+00  0.000E+00  0.000E+00  1.05392E+03  1.566E+00  1.200E+01  6.000E-02  1.522E+00
   1    3    5     3     1    2.0000E+00  2.8252E-01   1.7175E+00  0.000E+00  0.000E+00  0.000E+00  1.07555E+03  1.909E+00  9.636E+00  7.227E-02  1.955E+00
   1    3    6     3     2    1.7175E+00  2.4905E-01   1.4684E+00  0.000E+00  0.000E+00  0.000E+00  1.07264E+03  1.727E+00  8.909E+00  6.682E-02  1.864E+00
   1    3    7     3     3    1.4684E+00  1.9718E-01   1.2712E+00  0.000E+00  0.000E+00  0.000E+00  1.06987E+03  1.555E+00  8.218E+00  5.547E-02  1.777E+00
   1    4    8     3     4    1.2712E+00  2.2567E-01   1.0456E+00  0.000E+00  0.000E+00  0.000E+00  1.06682E+03  1.364E+00  7.455E+00  6.709E-02  1.682E+00
   1    5    8     3     5    1.0456E+00  1.5790E-01   8.8768E-01  0.000E+00  0.000E+00  0.000E+00  1.06362E+03  1.164E+00  6.655E+00  4.991E-02  1.582E+00
   1    6    8     3     6    8.8768E-01  5.5980E-02   8.3170E-01  0.000E+00  0.000E+00  0.000E+00  1.06158E+03  1.036E+00  6.145E+00  1.844E-02  1.518E+00
   1    5   10     4     1    1.0000E+01  9.0919E-02   9.9091E+00  0.000E+00  0.000E+00  0.000E+00  1.07836E+03  6.368E-01  1.000E+01  2.500E-02  1.212E+00
   1    5    9     4     2    9.9091E+00  1.8158E-01   9.7275E+00  0.000E+00  0.000E+00  0.000E+00  1.07154E+03  6.315E-01  1.000E+01  5.000E-02  1.211E+00
   1    6    8     4     3    9.7275E+00  1.2689E-01   9.6006E+00  0.000E+00  0.000E+00  0.000E+00  1.06381E+03  6.256E-01  1.000E+01  3.500E-02  1.209E+00
   1    6    8     5     1    1.0432E+01  2.2686E-01   1.0205E+01  0.000E+00  0.000E+00  0.000E+00  1.05868E+03  6.790E-01  1.542E+01  6.166E-02  1.226E+00
   1    7    7     5     2    1.0205E+01  2.7894E-01   9.9265E+00  0.000E+00  0.000E+00  0.000E+00  1.05417E+03  6.732E-01  1.519E+01  7.594E-02  1.224E+00
   1    8    7     5     3    9.9265E+00  1.9221E-01   9.7343E+00  0.000E+00  0.000E+00  0.000E+00  1.04992E+03  6.676E-01  1.497E+01  5.241E-02  1.223E+00
   1    8    6     5     4    9.7343E+00  1.3577E-01   9.5985E+00  0.000E+00  0.000E+00  0.000E+00  1.04691E+03  6.637E-01  1.482E+01  3.706E-02  1.221E+00
   1    9    6     6     1    4.8035E+01  2.8821E-01   4.7746E+01  0.000E+00  0.000E+00  0.000E+00  1.04453E+03  1.804E+00  1.200E+01  6.000E-02  1.601E+00
   1   10    7     6     2    4.7746E+01  2.8782E-01   4.7459E+01  0.000E+00  0.000E+00  0.000E+00  1.03998E+03  1.797E+00  1.200E+01  6.000E-02  1.599E+00
   1   11    7     6     3    4.7459E+01  2.8743E-01   4.7171E+01  0.000E+00  0.000E+00  0.000E+00  1.03543E+03  1.790E+00  1.200E+01  6.000E-02  1.597E+00
   1   12    7     6     4    4.7171E+01  2.8704E-01   4.6884E+01  0.000E+00  0.000E+00  0.000E+00  1.03087E+03  1.784E+00  1.200E+01  6.000E-02  1.595E+00
   1   13    7     6     5    4.6884E+01  2.1544E-02   4.6863E+01  0.000E+00  0.000E+00  0.000E+00  1.02769E+03  1.780E+00  1.200E+01  2.400E-02  2.992E-01
   1   14    9     7     1    1.5000E+02  1.3758E+00   1.4862E+02  0.000E+00  0.000E+00  0.000E+00  1.03987E+03  2.288E+00  5.529E+01  5.593E-01  8.200E-01
   1   13    8     7     2    1.4862E+02  1.9416E+00   1.4668E+02  0.000E+00  0.000E+00  0.000E+00  1.03478E+03  2.279E+00  5.525E+01  6.147E-01  1.053E+00
   1   13    7     7     3    1.4668E+02  1.6175E+00   1.4507E+02  0.000E+00  0.000E+00  0.000E+00  1.02969E+03  2.269E+00  5.521E+01  5.584E-01  9.656E-01
   1   13    6     8     1    1.9193E+02  1.1471E+00   1.9078E+02  0.000E+00  0.000E+00  0.000E+00  1.02496E+03  3.086E+00  4.475E+01  4.560E-01  8.385E-01
   1   13    5     8     2    1.9078E+02  3.3773E-01   1.9044E+02  0.000E+00  0.000E+00  0.000E+00  1.01871E+03  3.082E+00  4.468E+01  4.553E-01  2.472E-01
   1   13    4     8     3    1.9044E+02 -1.7321E+00   1.9218E+02  0.000E+00  0.000E+00  0.000E+00  1.01246E+03  3.086E+00  4.475E+01  4.560E+00 -1.266E-01
   1   13    3     8     4    1.9218E+02 -3.1283E+00   1.9530E+02  0.000E+00  0.000E+00  0.000E+00  1.00623E+03  3.101E+00  4.496E+01  4.581E+00 -2.276E-01
   1   13    2     8     5    1.9530E+02 -2.1277E+00   1.9743E+02  0.000E+00  0.000E+00  0.000E+00  9.99991E+02  3.116E+00  4.519E+01  4.605E+00 -1.540E-01
   1   13    1     8     6    1.9743E+02 -1.7435E+00   1.9917E+02  0.000E+00  0.000E+00  0.000E+00  9.95003E+02  3.128E+00  4.535E+01  2.773E+00 -2.096E-01
   1    8    6     9     1    0.0000E+00  0.0000E+00   0.0000E+00  0.000E+00  0.000E+00  0.000E+00  1.07875E+03  0.000E+00  4.000E+00  0.000E+00  1.000E+00
   1    8    5     9     2    0.0000E+00  0.0000E+00   0.0000E+00  0.000E+00  0.000E+00  0.000E+00  1.07825E+03  0.000E+00  4.000E+00  0.000E+00  1.000E+00



     PET DIFF ERROR     6    4    0.2245356025E-08    0.1500000053E-06
     PET DIFF ERROR     6    5    0.2245355975E-08    0.1500000053E-06
     PET DIFF ERROR     7    4    0.2245362558E-08    0.1500000053E-06
     PET DIFF ERROR     7    5    0.2245355982E-08    0.1500000053E-06
     PET DIFF ERROR     8    4    0.2245359263E-08    0.1500000053E-06
     PET DIFF ERROR     8    5    0.2245355975E-08    0.1500000053E-06


UNSATURATED ZONE PACKAGE VOLUMETRIC BUDGET FOR  TIME STEP    30 STRESS PERIOD   43
  ------------------------------------------------------------------------------



     CUMULATIVE VOLUMES      L**3       RATES FOR THIS TIME STEP      L**3/T
     ------------------                 ------------------------

           IN:                                      IN:
           ---                                      ---
        INFILTRATION = 11375373574.8309          INFILTRATION =           0.8475

          OUT:                                     OUT:
          ----                                     ----
              UZF ET =  1380851604.6006                UZF ET =          23.6543
        UZF RECHARGE =  9261544615.8139          UZF RECHARGE =         249.4732

            IN - OUT =   732977354.4164              IN - OUT =        -272.2800

          STORAGE:                                 STORAGE:
          --------                                 --------
      STORAGE CHANGE =   734430326.4893        STORAGE CHANGE =        -272.2915

 PERCENT DISCREPANCY IS DIFFERENCE BETWEEN IN-OUT MINUS CHANGE IN STORAGE
 DIVIDED BY THE AVERAGE OF IN AND OUT TIMES 100

 PERCENT DISCREPANCY =          -0.00     PERCENT DISCREPANCY =           0.00






1
  VOLUMETRIC BUDGET FOR AGRICULTURAL FIELDS AT  END OF TIME STEP   30, STRESS PERIOD  43
  ------------------------------------------------------------------------------

     CUMULATIVE VOLUMES      L**3       RATES FOR THIS TIME STEP      L**3/T
     ------------------                 ------------------------

           IN:                                      IN:
           ---                                      ---
               AG WELLS  = 10203790336.0000                 AG WELLS  =           0.0000
      DIVERSION SEGMENTS =  1077906304.0000        DIVERSION SEGMENTS =           0.0000
       IRRIGATION PONDS  =           0.0000         IRRIGATION PONDS  =           0.0000
           GW IRRIGATION =           0.0000             GW IRRIGATION =           0.0000
           SW IRRIGATION =           0.0000             SW IRRIGATION =           0.0000
        SYSTEM LOSSES GW =           0.0000          SYSTEM LOSSES GW =           0.0000
        SYSTEM LOSSES SW =           0.0000          SYSTEM LOSSES SW =           0.0000

                TOTAL IN = 11281696768.0000                  TOTAL IN =           0.0000

          OUT:                                     OUT:
          ----                                     ----
               AG WELLS  =           0.0000                 AG WELLS  =           0.0000
      DIVERSION SEGMENTS =           0.0000        DIVERSION SEGMENTS =           0.0000
       IRRIGATION PONDS  =           0.0000         IRRIGATION PONDS  =           0.0000
           GW IRRIGATION = 10203790336.0000             GW IRRIGATION =           0.0000
           SW IRRIGATION =  1077926400.0000             SW IRRIGATION =           0.0000
        SYSTEM LOSSES GW =           0.0000          SYSTEM LOSSES GW =           0.0000
        SYSTEM LOSSES SW =           0.0000          SYSTEM LOSSES SW =           0.0000

               TOTAL OUT = 11281717248.0000                 TOTAL OUT =           0.0000

                IN - OUT =      -20480.0000                  IN - OUT =           0.0000

     PERCENT DISCREPANCY =          -0.00         PERCENT DISCREPANCY =           0.00



1
  VOLUMETRIC BUDGET FOR ENTIRE MODEL AT END OF TIME STEP   30, STRESS PERIOD  43
  ------------------------------------------------------------------------------

     CUMULATIVE VOLUMES      L**3       RATES FOR THIS TIME STEP      L**3/T
     ------------------                 ------------------------

           IN:                                      IN:
           ---                                      ---
             STORAGE     =  8563685888.0000               STORAGE     =          12.0498
       CONSTANT HEAD     =           0.0000         CONSTANT HEAD     =           0.0000
     HEAD DEP BOUNDS     =    31710282.0000       HEAD DEP BOUNDS     =           0.2885
      STREAM LEAKAGE     =  1369578368.0000        STREAM LEAKAGE     =          13.0557
        UZF RECHARGE     =  9261541376.0000          UZF RECHARGE     =         249.4732
               GW ET     =           0.0000                 GW ET     =           0.0000
     SURFACE LEAKAGE     =           0.0000       SURFACE LEAKAGE     =           0.0000
           AG WELLS      =           0.0000             AG WELLS      =           0.0000

                TOTAL IN = 19226517504.0000                  TOTAL IN =         274.8672

          OUT:                                     OUT:
          ----                                     ----
             STORAGE     =  7862359040.0000               STORAGE     =         265.8398
       CONSTANT HEAD     =           0.0000         CONSTANT HEAD     =           0.0000
     HEAD DEP BOUNDS     =    32122984.0000       HEAD DEP BOUNDS     =           0.2900
      STREAM LEAKAGE     =  1126618368.0000        STREAM LEAKAGE     =           8.7315
        UZF RECHARGE     =           0.0000          UZF RECHARGE     =           0.0000
               GW ET     =     1532757.2500                 GW ET     =           0.0000
     SURFACE LEAKAGE     =           0.0000       SURFACE LEAKAGE     =           0.0000
           AG WELLS      = 10203790336.0000             AG WELLS      =           0.0000

               TOTAL OUT = 19226423296.0000                 TOTAL OUT =         274.8614

                IN - OUT =       94208.0000                  IN - OUT =       5.8289E-03

     PERCENT DISCREPANCY =           0.00         PERCENT DISCREPANCY =           0.00






         TIME SUMMARY AT END OF TIME STEP   30 IN STRESS PERIOD   43
                    SECONDS     MINUTES      HOURS       DAYS        YEARS
                    -----------------------------------------------------------
   TIME STEP LENGTH  87667.      1461.1      24.352      1.0147     2.77799E-03
 STRESS PERIOD TIME 2.63000E+06  43833.      730.56      30.440     8.33397E-02
         TOTAL TIME 1.10545E+08 1.84242E+06  30707.      1279.5      3.5030    
1
1
                            STRESS PERIOD NO.   44, LENGTH =   2630000.    
                            -----------------------------------------------

                              NUMBER OF TIME STEPS =    30

                               MULTIPLIER FOR DELT =     1.000

                            INITIAL TIME STEP SIZE =   87666.66    

 REUSING NON-PARAMETER GHB CELLS FROM LAST STRESS PERIOD

      2 GHB CELLS

 REUSING STREAM SEGMENT DATA FROM LAST STRESS PERIOD



            AREAL INFILTRATION RATE
 READING ON UNIT   19 WITH FORMAT: (FREE)              

            1           2           3           4           5           6           7           8           9          10
 ........................................................................................................................
   1   1.0000E-10  2.0000E-10   0.000       0.000       0.000       0.000       0.000       0.000       0.000       0.000    
   2   2.0000E-10  1.0000E-10  2.0000E-10   0.000       0.000      8.0000E-10  8.0000E-10  5.0000E-10   0.000       0.000    
   3    0.000      5.0000E-10  1.0000E-10  1.0000E-10  8.0000E-10  8.0000E-10  5.0000E-10  5.0000E-10   0.000       0.000    
   4   8.0000E-10  5.0000E-10  1.0000E-10  1.0000E-10  1.0000E-10  1.0000E-10  1.0000E-10  1.0000E-10  2.0000E-10   0.000    
   5   8.0000E-10  5.0000E-10  1.0000E-10  1.0000E-10  1.0000E-10  1.0000E-10  1.0000E-10  1.0000E-10  1.0000E-10  1.0000E-10
   6   8.0000E-10  5.0000E-10  5.0000E-10  2.0000E-10  2.0000E-10  1.0000E-10  1.0000E-10  1.0000E-10  1.0000E-10  5.0000E-10
   7   8.0000E-10  5.0000E-10  5.0000E-10  2.0000E-10  2.0000E-10  1.0000E-10  1.0000E-10  2.0000E-10  2.0000E-10   0.000    
   8    0.000      5.0000E-10  5.0000E-10  2.0000E-10  2.0000E-10  1.0000E-10  1.0000E-10  2.0000E-10  5.0000E-10   0.000    
   9    0.000      5.0000E-10  5.0000E-10  2.0000E-10  2.0000E-10  1.0000E-10  1.0000E-10  2.0000E-10  5.0000E-10   0.000    
  10    0.000      5.0000E-10  5.0000E-10  2.0000E-10  2.0000E-10  1.0000E-10  1.0000E-10  2.0000E-10  5.0000E-10  8.0000E-10
  11    0.000      1.0000E-10  1.0000E-10  1.0000E-10  1.0000E-10  1.0000E-10  1.0000E-10  2.0000E-10  5.0000E-10   0.000    
  12   1.0000E-10  1.0000E-10  1.0000E-10  1.0000E-10  1.0000E-10  1.0000E-10  1.0000E-10  1.0000E-10  2.0000E-10   0.000    
  13   1.0000E-10  1.0000E-10  2.0000E-10  2.0000E-10  2.0000E-10  2.0000E-10  2.0000E-10  1.0000E-10  1.0000E-10   0.000    
  14    0.000      2.0000E-10  5.0000E-10  5.0000E-10  5.0000E-10  5.0000E-10  5.0000E-10  2.0000E-10  1.0000E-10   0.000    
  15    0.000       0.000      8.0000E-10  8.0000E-10  8.0000E-10  8.0000E-10   0.000       0.000       0.000       0.000    

                  ET RATE =  4.000000E-07

 USING ET EXTINCTION DEPTH FROM PREVIOUS STRESS PERIOD. CURRENT PERIOD IS:      44

 USING EXTINCTION WATER CONTENT FROM PREVIOUS STRESS PERIOD. CURRENT PERIOD IS:      44

 USING AIR ENTRY PRESSURE FROM PREVIOUS STRESS PERIOD. CURRENT PERIOD IS:      44

 USING ROOT PRESSURE HEAD FROM PREVIOUS STRESS PERIOD. CURRENT PERIOD IS:      44

 USING ROOT ACTIVITY FROM PREVIOUS STRESS PERIOD. CURRENT PERIOD IS:      44

 PROCESSING AG STRESS PERIOD DATA

 READING AG STRESS PERIOD DATA

 READING IRRIGATION SEGMENT

 READING IRRIGATION WELL

 READING SUPPLEMENTAL WELL

 NO IRRPOND OR REUSING IRRPOND DATA FROM LAST STRESS PERIOD

 END PROCESSING AG STRESS PERIOD DATA OPTIONS
 
 SOLVING FOR HEAD 
                                                   Max.-Head-Change                         Max.-Flux-Residual
  Residual-Control   Outer-Iter.   Inner-Iter.     Column Row Layer    Maximum-Head-Change  Column Row Layer    Maximum-Flux-Residual          L2-NORM 
          0                 1           2             4    8     1       0.7428302208E+00       4    8    1         0.3947106487E+02      0.7325671031E+02
          0                 2           2             4    7     1      -0.1666098154E+01       4    6    1        -0.9070646942E+02      0.2103381448E+03
          0                 3           2             5    7     1      -0.9034127591E+00       5    7    1        -0.4987641314E+02      0.8945685347E+02
          0                 4           2             5    8     1      -0.2352123536E+00       5    8    1        -0.1328597973E+02      0.1587327621E+02
          0                 5           2             5    8     1       0.1602111268E-01       5    8    1         0.9290205319E+00      0.1084752115E+01
          0                 6           2             5    8     1      -0.6378009195E-03       5    8    1        -0.3796655859E-01      0.4380860245E-01
          0                 7           1             5    8     1       0.7876032008E-05       5    8    1         0.4812684022E-03      0.5548559739E-03

    ------------------------------------------------
       NWT REQUIRED            7 OUTER ITERATIONS 
       AND A TOTAL OF         13 INNER ITERATIONS.
    ------------------------------------------------

 NO OUTPUT CONTROL FOR STRESS PERIOD   44   TIME STEP    1
 
 SOLVING FOR HEAD 
                                                   Max.-Head-Change                         Max.-Flux-Residual
  Residual-Control   Outer-Iter.   Inner-Iter.     Column Row Layer    Maximum-Head-Change  Column Row Layer    Maximum-Flux-Residual          L2-NORM 
          0                 1           2             4    6     1       0.1887896602E+00       5    8    1         0.1006509193E+02      0.2426496062E+02
          0                 2           2             4    7     1       0.5682804066E-01       4    6    1         0.2990937015E+01      0.7172292153E+01
          0                 3           2             4    7     1       0.5838464644E-01       4    7    1         0.3050683849E+01      0.7367620110E+01
          0                 4           2             4    7     1       0.2752519756E-01       4    7    1         0.1439014107E+01      0.3416125927E+01
          0                 5           2             4    7     1       0.1296843725E-01       4    7    1         0.6783393374E+00      0.1586103290E+01
          0                 6           2             4    7     1       0.6106380013E-02       4    7    1         0.3195631058E+00      0.7365858321E+00
          0                 7           2             4    7     1       0.2873636914E-02       4    7    1         0.1504553241E+00      0.3421296995E+00
          0                 8           2             4    7     1       0.1351587309E-02       4    7    1         0.7079662619E-01      0.1589376619E+00
          0                 9           2             4    7     1       0.6353779159E-03       4    7    1         0.3329536721E-01      0.7384570243E-01
          0                10           2             4    7     1       0.2985430717E-03       4    7    1         0.1565066720E-01      0.3431470951E-01
                                                   Max.-Head-Change                         Max.-Flux-Residual
  Residual-Control   Outer-Iter.   Inner-Iter.     Column Row Layer    Maximum-Head-Change  Column Row Layer    Maximum-Flux-Residual          L2-NORM 
          0                11           2             4    7     1       0.1402100898E-03       4    7    1         0.7353103545E-02      0.1594729321E-01
          0                12           1             4    7     1       0.6582015808E-04       4    7    1         0.3453088501E-02      0.7412087230E-02

    ------------------------------------------------
       NWT REQUIRED           12 OUTER ITERATIONS 
       AND A TOTAL OF         23 INNER ITERATIONS.
    ------------------------------------------------

 NO OUTPUT CONTROL FOR STRESS PERIOD   44   TIME STEP    2
 
 SOLVING FOR HEAD 
                                                   Max.-Head-Change                         Max.-Flux-Residual
  Residual-Control   Outer-Iter.   Inner-Iter.     Column Row Layer    Maximum-Head-Change  Column Row Layer    Maximum-Flux-Residual          L2-NORM 
          0                 1           2             4    7     1       0.4138923149E+00       4    7    1         0.2161762415E+02      0.5247739708E+02
          0                 2           2             5    8     1      -0.6560988990E-01       5    8    1        -0.3613870608E+01      0.8566309372E+01
          0                 3           2             5    8     1      -0.3099748710E-01       5    8    1        -0.1706958160E+01      0.4029007994E+01
          0                 4           2             5    8     1      -0.1463623459E-01       5    8    1        -0.8062998852E+00      0.1927221071E+01
          0                 5           2             5    7     1      -0.7025002008E-02       5    7    1        -0.3811597590E+00      0.9223773013E+00
          0                 6           2             5    7     1      -0.3374880151E-02       5    7    1        -0.1831604102E+00      0.4415431778E+00
          0                 7           2             4    7     1      -0.1625100788E-02       5    7    1        -0.8798690138E-01      0.2114075784E+00
          0                 8           2             4    7     1      -0.7901072924E-03       4    7    1        -0.4243506924E-01      0.1012378580E+00
          0                 9           2             4    7     1      -0.3838892361E-03       4    7    1        -0.2062932585E-01      0.4848796670E-01
          0                10           2             4    7     1      -0.1864041546E-03       4    7    1        -0.1002215980E-01      0.2322670696E-01
          0                11           1             4    7     1      -0.9045856292E-04       4    7    1        -0.4865968924E-02      0.1112752217E-01

    ------------------------------------------------
       NWT REQUIRED           11 OUTER ITERATIONS 
       AND A TOTAL OF         21 INNER ITERATIONS.
    ------------------------------------------------

 NO OUTPUT CONTROL FOR STRESS PERIOD   44   TIME STEP    3
 
 SOLVING FOR HEAD 
                                                   Max.-Head-Change                         Max.-Flux-Residual
  Residual-Control   Outer-Iter.   Inner-Iter.     Column Row Layer    Maximum-Head-Change  Column Row Layer    Maximum-Flux-Residual          L2-NORM 
          0                 1           2             4    7     1       0.4116718874E+00       4    7    1         0.2150740272E+02      0.5177671872E+02
          0                 2           2             4    7     1      -0.1674420880E+01       5    8    1        -0.9043679244E+02      0.2209435016E+03
          0                 3           2             4    7     1      -0.4811954107E+00       4    7    1        -0.2584136510E+02      0.6225840318E+02
          0                 4           2             4    7     1       0.3277071507E-01       4    7    1         0.1809052634E+01      0.4358833831E+01
          0                 5           2             4    7     1      -0.1304294221E-02       4    7    1        -0.7400837719E-01      0.1783082736E+00
          0                 6           1             4    7     1       0.1609444103E-04       4    7    1         0.9386098543E-03      0.2261452661E-02

    ------------------------------------------------
       NWT REQUIRED            6 OUTER ITERATIONS 
       AND A TOTAL OF         11 INNER ITERATIONS.
    ------------------------------------------------

 NO OUTPUT CONTROL FOR STRESS PERIOD   44   TIME STEP    4
 
 SOLVING FOR HEAD 
                                                   Max.-Head-Change                         Max.-Flux-Residual
  Residual-Control   Outer-Iter.   Inner-Iter.     Column Row Layer    Maximum-Head-Change  Column Row Layer    Maximum-Flux-Residual          L2-NORM 
          0                 1           2             5    8     1       0.6404851387E+00       5    8    1         0.3531555054E+02      0.3607660477E+02
          0                 2           2             5    8     1       0.3389284937E+00       5    8    1         0.1876316692E+02      0.1927130861E+02
          0                 3           2             5    8     1       0.2263835056E+00       5    8    1         0.1244105666E+02      0.1307403155E+02
          0                 4           2             5    8     1       0.1306298314E+00       5    8    1         0.7212443980E+01      0.7214138377E+01
          0                 5           2             5    8     1       0.7537609374E-01       5    8    1         0.4160442503E+01      0.4160464180E+01
          0                 6           2             5    8     1       0.4349328501E-01       5    8    1         0.2400726743E+01      0.2400732427E+01
          0                 7           2             5    8     1       0.2509627185E-01       5    8    1         0.1385261214E+01      0.1385264700E+01
          0                 8           2             5    8     1       0.1448089141E-01       5    8    1         0.7993175396E+00      0.7993195395E+00
          0                 9           2             5    8     1       0.8355661868E-02       5    8    1         0.4612175096E+00      0.4612186628E+00
          0                10           1             5    8     1       0.4821321728E-02       5    8    1         0.2661286049E+00      0.2661292699E+00
                                                   Max.-Head-Change                         Max.-Flux-Residual
  Residual-Control   Outer-Iter.   Inner-Iter.     Column Row Layer    Maximum-Head-Change  Column Row Layer    Maximum-Flux-Residual          L2-NORM 
          0                11           1             5    8     1       0.2781962003E-02       5    8    1         0.1535595878E+00      0.1535599713E+00
          0                12           1             5    8     1       0.1605225956E-02       5    8    1         0.8860578819E-01      0.8860600934E-01
          0                13           1             5    8     1       0.9262348019E-03       5    8    1         0.5112662428E-01      0.5112675182E-01
          0                14           1             5    8     1       0.5344486481E-03       5    8    1         0.2950068289E-01      0.2950075644E-01
          0                15           1             5    8     1       0.3083832994E-03       5    8    1         0.1702225046E-01      0.1702229289E-01
          0                16           1             5    8     1       0.1779408695E-03       5    8    1         0.9822043625E-02      0.9822068094E-02
          0                17           1             5    8     1       0.1026740182E-03       5    8    1         0.5667437326E-02      0.5667451439E-02
          0                18           1             5    8     1       0.5924414061E-04       5    8    1         0.3270179452E-02      0.3270187600E-02

    ------------------------------------------------
       NWT REQUIRED           18 OUTER ITERATIONS 
       AND A TOTAL OF         27 INNER ITERATIONS.
    ------------------------------------------------

 NO OUTPUT CONTROL FOR STRESS PERIOD   44   TIME STEP    5
 
 SOLVING FOR HEAD 
                                                   Max.-Head-Change                         Max.-Flux-Residual
  Residual-Control   Outer-Iter.   Inner-Iter.     Column Row Layer    Maximum-Head-Change  Column Row Layer    Maximum-Flux-Residual          L2-NORM 
          0                 1           2             5    8     1       0.1956229880E+01       5    8    1         0.1050227704E+03      0.2076925443E+03
          0                 2           2             5    8     1       0.9108939733E+00       5    8    1         0.4892519231E+02      0.9308680469E+02
          0                 3           2             5    8     1       0.5428163421E+00       5    8    1         0.2914595442E+02      0.5614673108E+02
          0                 4           2             4    8     1       0.3245601049E+00       5    8    1         0.1737039473E+02      0.3387667666E+02
          0                 5           2             4    8     1       0.1961379443E+00       4    8    1         0.1040710864E+02      0.2043588248E+02
          0                 6           2             4    8     1       0.1185288531E+00       4    8    1         0.6289267601E+01      0.1233370322E+02
          0                 7           2             4    8     1       0.7162877980E-01       4    8    1         0.3800712806E+01      0.7446146177E+01
          0                 8           2             4    8     1       0.4328682520E-01       4    8    1         0.2296838954E+01      0.4496838011E+01
          0                 9           2             4    8     1       0.2615926008E-01       4    8    1         0.1388035394E+01      0.2716138798E+01
          0                10           2             4    8     1       0.1580889941E-01       4    8    1         0.8388243710E+00      0.1641104663E+01
                                                   Max.-Head-Change                         Max.-Flux-Residual
  Residual-Control   Outer-Iter.   Inner-Iter.     Column Row Layer    Maximum-Head-Change  Column Row Layer    Maximum-Flux-Residual          L2-NORM 
          0                11           2             4    8     1       0.9554034319E-02       4    8    1         0.5069307767E+00      0.9915707369E+00
          0                12           2             4    8     1       0.5774076485E-02       4    8    1         0.3063623326E+00      0.5992980774E+00
          0                13           2             4    8     1       0.3489716927E-02       4    8    1         0.1851538630E+00      0.3622957975E+00
          0                14           2             4    8     1       0.2109167008E-02       4    8    1         0.1119031344E+00      0.2190691779E+00
          0                15           2             4    8     1       0.1274811156E-02       4    8    1         0.6763398165E-01      0.1324922186E+00
          0                16           2             4    8     1       0.7705409832E-03       4    8    1         0.4087915375E-01      0.8014657709E-01
          0                17           2             4    8     1       0.4657591571E-03       4    8    1         0.2470893061E-01      0.4849084278E-01
          0                18           2             4    8     1       0.2815422036E-03       4    8    1         0.1493557251E-01      0.2934334297E-01
          0                19           2             4    8     1       0.1701933693E-03       4    8    1         0.9028307286E-02      0.1775946202E-01
          0                20           1             4    8     1       0.1028866810E-03       4    8    1         0.5457677838E-02      0.1075018457E-01
          0                21           1             4    8     1       0.6220050116E-04       4    8    1         0.3299340656E-02      0.6508242604E-02

    ------------------------------------------------
       NWT REQUIRED           21 OUTER ITERATIONS 
       AND A TOTAL OF         40 INNER ITERATIONS.
    ------------------------------------------------

 NO OUTPUT CONTROL FOR STRESS PERIOD   44   TIME STEP    6
 
 SOLVING FOR HEAD 
                                                   Max.-Head-Change                         Max.-Flux-Residual
  Residual-Control   Outer-Iter.   Inner-Iter.     Column Row Layer    Maximum-Head-Change  Column Row Layer    Maximum-Flux-Residual          L2-NORM 
          0                 1           2             4    6     1       0.2082234462E+01       4    6    1         0.1103240633E+03      0.2583148580E+03
          0                 2           2             4    7     1       0.1181553562E+01       4    7    1         0.6180400531E+02      0.1439311912E+03
          0                 3           2             4    7     1       0.7417780855E+00       4    7    1         0.3882297776E+02      0.8917466426E+02
          0                 4           2             4    7     1       0.4283550006E+00       4    7    1         0.2243554537E+02      0.5054536442E+02
          0                 5           2             4    7     1       0.2626675880E+00       4    7    1         0.1376481503E+02      0.3059850644E+02
          0                 6           2             4    7     1       0.1609750682E+00       4    7    1         0.8439915895E+01      0.1852524163E+02
          0                 7           2             4    7     1       0.9859968325E-01       4    7    1         0.5171980435E+01      0.1121686501E+02
          0                 8           2             4    7     1       0.6036303434E-01       4    7    1         0.3167684964E+01      0.6792382288E+01
          0                 9           2             4    7     1       0.3693668753E-01       4    7    1         0.1939131702E+01      0.4113520643E+01
          0                10           2             4    7     1       0.2259164594E-01       4    7    1         0.1186493882E+01      0.2491401436E+01
                                                   Max.-Head-Change                         Max.-Flux-Residual
  Residual-Control   Outer-Iter.   Inner-Iter.     Column Row Layer    Maximum-Head-Change  Column Row Layer    Maximum-Flux-Residual          L2-NORM 
          0                11           2             4    7     1       0.1381184492E-01       4    7    1         0.7256517079E+00      0.1509070693E+01
          0                12           2             4    7     1       0.8440720124E-02       4    7    1         0.4436150215E+00      0.9141315172E+00
          0                13           2             4    7     1       0.5156330129E-02       4    7    1         0.2710875622E+00      0.5537815301E+00
          0                14           2             4    7     1       0.3148793300E-02       4    7    1         0.1655951517E+00      0.3355030951E+00
          0                15           2             4    7     1       0.1922197809E-02       4    7    1         0.1011181382E+00      0.2032734314E+00
          0                16           2             4    7     1       0.1173033055E-02       4    7    1         0.6172514687E-01      0.1231653739E+00
          0                17           2             4    7     1       0.7156290547E-03       4    7    1         0.3766643470E-01      0.7463088974E-01
          0                18           2             4    7     1       0.4364536067E-03       4    7    1         0.2297806459E-01      0.4522398126E-01
          0                19           2             4    7     1       0.2661136086E-03       4    7    1         0.1401347154E-01      0.2740548518E-01
          0                20           2             4    7     1       0.1622112817E-03       4    7    1         0.8543932310E-02      0.1660822445E-01
          0                21           1             4    7     1       0.9885206796E-04       4    7    1         0.5207816615E-02      0.1006524904E-01

    ------------------------------------------------
       NWT REQUIRED           21 OUTER ITERATIONS 
       AND A TOTAL OF         41 INNER ITERATIONS.
    ------------------------------------------------

 NO OUTPUT CONTROL FOR STRESS PERIOD   44   TIME STEP    7
 
 SOLVING FOR HEAD 
                                                   Max.-Head-Change                         Max.-Flux-Residual
  Residual-Control   Outer-Iter.   Inner-Iter.     Column Row Layer    Maximum-Head-Change  Column Row Layer    Maximum-Flux-Residual          L2-NORM 
          0                 1           2             4    7     1       0.2038556971E+01       4    7    1         0.1067165095E+03      0.2288210156E+03
          0                 2           2             4    7     1       0.9811258984E+00       4    7    1         0.5146627987E+02      0.1066684245E+03
          0                 3           2             4    7     1       0.6003982145E+00       4    7    1         0.3151887489E+02      0.6392017117E+02
          0                 4           2             4    7     1       0.3650821132E+00       4    7    1         0.1928581476E+02      0.3566110055E+02
          0                 5           2             4    7     1       0.2210010626E+00       4    7    1         0.1171513379E+02      0.2102486553E+02
          0                 6           2             4    7     1       0.1331075978E+00       4    7    1         0.7075658148E+01      0.1260680065E+02
          0                 7           2             4    7     1       0.8022277765E-01       4    7    1         0.4266915170E+01      0.7575651327E+01
          0                 8           2             4    7     1       0.4833275854E-01       4    7    1         0.2571397603E+01      0.4553558343E+01
          0                 9           2             4    7     1       0.2911452651E-01       4    7    1         0.1549159195E+01      0.2737147393E+01
          0                10           2             4    7     1       0.1753600300E-01       4    7    1         0.9331582915E+00      0.1645335731E+01
                                                   Max.-Head-Change                         Max.-Flux-Residual
  Residual-Control   Outer-Iter.   Inner-Iter.     Column Row Layer    Maximum-Head-Change  Column Row Layer    Maximum-Flux-Residual          L2-NORM 
          0                11           2             4    7     1       0.1056125561E-01       4    7    1         0.5620440397E+00      0.9890558439E+00
          0                12           2             4    7     1       0.6360182234E-02       4    7    1         0.3384937147E+00      0.5945624257E+00
          0                13           2             4    7     1       0.3829968959E-02       4    7    1         0.2038451790E+00      0.3574244430E+00
          0                14           2             4    7     1       0.2306186077E-02       4    7    1         0.1227502104E+00      0.2148724159E+00
          0                15           2             4    7     1       0.1388571235E-02       4    7    1         0.7391245619E-01      0.1291772686E+00
          0                16           2             4    7     1       0.8360223057E-03       4    7    1         0.4450285899E-01      0.7766045088E-01
          0                17           2             4    7     1       0.5033203695E-03       4    7    1         0.2679379438E-01      0.4668974286E-01
          0                18           2             4    7     1       0.3030045043E-03       4    7    1         0.1613086330E-01      0.2807050574E-01
          0                19           2             4    7     1       0.1824032377E-03       4    7    1         0.9710890857E-02      0.1687662602E-01
          0                20           1             4    7     1       0.1097983366E-03       4    7    1         0.5845740674E-02      0.1014675421E-01
          0                21           1             4    7     1       0.6609059239E-04       4    7    1         0.3518843082E-02      0.6100624542E-02

    ------------------------------------------------
       NWT REQUIRED           21 OUTER ITERATIONS 
       AND A TOTAL OF         40 INNER ITERATIONS.
    ------------------------------------------------

 NO OUTPUT CONTROL FOR STRESS PERIOD   44   TIME STEP    8
 
 SOLVING FOR HEAD 
                                                   Max.-Head-Change                         Max.-Flux-Residual
  Residual-Control   Outer-Iter.   Inner-Iter.     Column Row Layer    Maximum-Head-Change  Column Row Layer    Maximum-Flux-Residual          L2-NORM 
          0                 1           2             4    6     1       0.1850128542E+01       4    6    1         0.9942068967E+02      0.1266274844E+03
          0                 2           2             4    6     1       0.9936275017E+00       4    6    1         0.5413651290E+02      0.5549705865E+02
          0                 3           2             4    6     1       0.5995431697E+00       4    6    1         0.3265084172E+02      0.3291356366E+02
          0                 4           2             4    6     1       0.1473559307E+00       4    6    1         0.8065902653E+01      0.8553475458E+01
          0                 5           2             4    6     1       0.3204848278E-01       4    6    1         0.1753614242E+01      0.1769371362E+01
          0                 6           2             4    6     1       0.6974434216E-02       4    6    1         0.3814638937E+00      0.3832716137E+00
          0                 7           2             4    6     1       0.1518724849E-02       4    6    1         0.8302704428E-01      0.8325771826E-01
          0                 8           2             4    6     1       0.3309321307E-03       4    6    1         0.1808242397E-01      0.1810496299E-01
          0                 9           1             4    6     1       0.7216292511E-04       4    6    1         0.3940835833E-02      0.3942028990E-02

    ------------------------------------------------
       NWT REQUIRED            9 OUTER ITERATIONS 
       AND A TOTAL OF         17 INNER ITERATIONS.
    ------------------------------------------------

 NO OUTPUT CONTROL FOR STRESS PERIOD   44   TIME STEP    9
 
 SOLVING FOR HEAD 
                                                   Max.-Head-Change                         Max.-Flux-Residual
  Residual-Control   Outer-Iter.   Inner-Iter.     Column Row Layer    Maximum-Head-Change  Column Row Layer    Maximum-Flux-Residual          L2-NORM 
          0                 1           2             5    8     1       0.1010950187E+01       5    8    1         0.5584878124E+02      0.6665460385E+02
          0                 2           2             5    8     1       0.3215646046E+00       5    8    1         0.1815120350E+02      0.3472516217E+02
          0                 3           2             5    8     1       0.1847347384E+00       5    8    1         0.1017746667E+02      0.1060053095E+02
          0                 4           2             5    8     1       0.1029417942E+00       5    8    1         0.5698606931E+01      0.5702232896E+01
          0                 5           2             5    8     1       0.2202408723E-01       5    8    1         0.1218243294E+01      0.1218344460E+01
          0                 6           1             5    8     1       0.4712118155E-02       5    8    1         0.2606893632E+00      0.2606968670E+00
          0                 7           1             5    8     1       0.1008177498E-02       5    8    1         0.5577320780E-01      0.5577502098E-01
          0                 8           1             5    8     1       0.2157040887E-03       5    8    1         0.1193309194E-01      0.1193345961E-01
          0                 9           1             5    8     1       0.4615086813E-04       5    8    1         0.2553128335E-02      0.2553208251E-02

    ------------------------------------------------
       NWT REQUIRED            9 OUTER ITERATIONS 
       AND A TOTAL OF         14 INNER ITERATIONS.
    ------------------------------------------------

 NO OUTPUT CONTROL FOR STRESS PERIOD   44   TIME STEP   10
 
 SOLVING FOR HEAD 
                                                   Max.-Head-Change                         Max.-Flux-Residual
  Residual-Control   Outer-Iter.   Inner-Iter.     Column Row Layer    Maximum-Head-Change  Column Row Layer    Maximum-Flux-Residual          L2-NORM 
          0                 1           2             4    8     1       0.1498123728E+01       4    8    1         0.8096011659E+02      0.1236967696E+03
          0                 2           2             4    6     1      -0.1847584038E+01       5    8    1        -0.9905949645E+02      0.2089093845E+03
          0                 3           2             5    6     1      -0.8552926998E+00       5    6    1        -0.4828090948E+02      0.7713616820E+02
          0                 4           2             4    7     1      -0.4817532298E+00       4    7    1        -0.2653689883E+02      0.3580038883E+02
          0                 5           2             5    7     1      -0.2136196206E+00       5    7    1        -0.1200635838E+02      0.1740246762E+02
          0                 6           2             5    7     1      -0.1254235221E+00       5    7    1        -0.7142421282E+01      0.8649137373E+01
          0                 7           2             5    7     1      -0.7364104860E-01       5    7    1        -0.4187196320E+01      0.5087137607E+01
          0                 8           2             5    7     1      -0.4323781559E-01       5    7    1        -0.2458620639E+01      0.3007491149E+01
          0                 9           2             5    7     1      -0.2538686381E-01       5    7    1        -0.1443532527E+01      0.1778222885E+01
          0                10           2             5    7     1      -0.1490580224E-01       5    7    1        -0.8475482466E+00      0.1051605166E+01
                                                   Max.-Head-Change                         Max.-Flux-Residual
  Residual-Control   Outer-Iter.   Inner-Iter.     Column Row Layer    Maximum-Head-Change  Column Row Layer    Maximum-Flux-Residual          L2-NORM 
          0                11           2             5    7     1      -0.8751900201E-02       5    7    1        -0.4976265536E+00      0.6220184336E+00
          0                12           2             5    7     1      -0.5138660343E-02       5    7    1        -0.2921753223E+00      0.3679919166E+00
          0                13           2             5    7     1      -0.3017157372E-02       5    7    1        -0.1715474123E+00      0.2177500872E+00
          0                14           2             5    7     1      -0.1771521798E-02       5    7    1        -0.1007222376E+00      0.1288736213E+00
          0                15           2             5    7     1      -0.1040148981E-02       5    7    1        -0.5913806123E-01      0.7628795294E-01
          0                16           2             5    7     1      -0.6107242249E-03       5    7    1        -0.3472236776E-01      0.4516839871E-01
          0                17           2             5    7     1      -0.3585876683E-03       5    7    1        -0.2038694487E-01      0.2674858125E-01
          0                18           2             5    7     1      -0.2105456238E-03       5    7    1        -0.1197003938E-01      0.1584362651E-01
          0                19           2             5    7     1      -0.1236225842E-03       5    7    1        -0.7028128308E-02      0.9386347396E-02
          0                20           1             5    7     1      -0.7258555290E-04       5    7    1        -0.4126525365E-02      0.5561951041E-02

    ------------------------------------------------
       NWT REQUIRED           20 OUTER ITERATIONS 
       AND A TOTAL OF         39 INNER ITERATIONS.
    ------------------------------------------------

 NO OUTPUT CONTROL FOR STRESS PERIOD   44   TIME STEP   11
 
 SOLVING FOR HEAD 
                                                   Max.-Head-Change                         Max.-Flux-Residual
  Residual-Control   Outer-Iter.   Inner-Iter.     Column Row Layer    Maximum-Head-Change  Column Row Layer    Maximum-Flux-Residual          L2-NORM 
          0                 1           2             4    7     1       0.1127709986E+01       4    7    1         0.6061645152E+02      0.8889242031E+02
          0                 2           2             4    7     1       0.2209508749E+00       4    7    1         0.1186656677E+02      0.1699101796E+02
          0                 3           2             4    6     1       0.8710503742E-01       4    6    1         0.4638110975E+01      0.8365095151E+01
          0                 4           2             4    6     1       0.5162866170E-01       4    6    1         0.2791338777E+01      0.3188069827E+01
          0                 5           2             4    6     1       0.3035574971E-01       4    6    1         0.1650288315E+01      0.1688639525E+01
          0                 6           2             4    6     1       0.1779435053E-01       4    6    1         0.9694017276E+00      0.9734825942E+00
          0                 7           2             4    6     1       0.1041907754E-01       4    6    1         0.5680573249E+00      0.5686277403E+00
          0                 8           2             4    6     1       0.6098024946E-02       4    6    1         0.3325689379E+00      0.3326941927E+00
          0                 9           2             4    6     1       0.3568436953E-02       4    6    1         0.1946345194E+00      0.1946781726E+00
          0                10           2             4    6     1       0.2088044776E-02       4    6    1         0.1138939094E+00      0.1139142922E+00
                                                   Max.-Head-Change                         Max.-Flux-Residual
  Residual-Control   Outer-Iter.   Inner-Iter.     Column Row Layer    Maximum-Head-Change  Column Row Layer    Maximum-Flux-Residual          L2-NORM 
          0                11           2             4    6     1       0.1221775103E-02       4    6    1         0.6664371472E-01      0.6665461611E-01
          0                12           2             4    6     1       0.7148892893E-03       4    6    1         0.3899505226E-01      0.3900121337E-01
          0                13           2             4    6     1       0.4182970434E-03       4    6    1         0.2281689785E-01      0.2282045533E-01
          0                14           2             4    6     1       0.2447542350E-03       4    6    1         0.1335065112E-01      0.1335272218E-01
          0                15           2             4    6     1       0.1432106806E-03       4    6    1         0.7811740592E-02      0.7812950078E-02
          0                16           1             4    6     1       0.8379546443E-04       4    6    1         0.4570808097E-02      0.4571515272E-02

    ------------------------------------------------
       NWT REQUIRED           16 OUTER ITERATIONS 
       AND A TOTAL OF         31 INNER ITERATIONS.
    ------------------------------------------------

 NO OUTPUT CONTROL FOR STRESS PERIOD   44   TIME STEP   12
 
 SOLVING FOR HEAD 
                                                   Max.-Head-Change                         Max.-Flux-Residual
  Residual-Control   Outer-Iter.   Inner-Iter.     Column Row Layer    Maximum-Head-Change  Column Row Layer    Maximum-Flux-Residual          L2-NORM 
          0                 1           2             4    6     1       0.2743987213E+00       4    6    1         0.1507267586E+02      0.3150420846E+02
          0                 2           2             4    7     1      -0.1910184125E+01       4    7    1        -0.9987211034E+02      0.2425452143E+03
          0                 3           2             4    6     1      -0.4260680390E+00       4    6    1        -0.2418833586E+02      0.3287196622E+02
          0                 4           2             4    6     1       0.2863384109E-01       4    6    1         0.1671069591E+01      0.2284798248E+01
          0                 5           2             4    6     1      -0.1139745612E-02       4    6    1        -0.6836989771E-01      0.9347467104E-01
          0                 6           1             4    6     1       0.1406382411E-04       4    6    1         0.8670818988E-03      0.1185208461E-02

    ------------------------------------------------
       NWT REQUIRED            6 OUTER ITERATIONS 
       AND A TOTAL OF         11 INNER ITERATIONS.
    ------------------------------------------------

 NO OUTPUT CONTROL FOR STRESS PERIOD   44   TIME STEP   13
 
 SOLVING FOR HEAD 
                                                   Max.-Head-Change                         Max.-Flux-Residual
  Residual-Control   Outer-Iter.   Inner-Iter.     Column Row Layer    Maximum-Head-Change  Column Row Layer    Maximum-Flux-Residual          L2-NORM 
          0                 1           2             5    6     1      -0.1741683935E+00       5    6    1        -0.9598820983E+01      0.2222554900E+02
          0                 2           2             4    7     1      -0.2293303382E-01       4    7    1        -0.1204178392E+01      0.2978363344E+01
          0                 3           2             4    7     1       0.3309874331E-01       4    7    1         0.1778786703E+01      0.4327711096E+01
          0                 4           2             4    7     1      -0.2253921029E-02       4    7    1        -0.1245238994E+00      0.3028778958E+00
          0                 5           1             4    7     1       0.8968553308E-04       4    7    1         0.5093330847E-02      0.1238682056E-01

    ------------------------------------------------
       NWT REQUIRED            5 OUTER ITERATIONS 
       AND A TOTAL OF          9 INNER ITERATIONS.
    ------------------------------------------------

 NO OUTPUT CONTROL FOR STRESS PERIOD   44   TIME STEP   14
 
 SOLVING FOR HEAD 
                                                   Max.-Head-Change                         Max.-Flux-Residual
  Residual-Control   Outer-Iter.   Inner-Iter.     Column Row Layer    Maximum-Head-Change  Column Row Layer    Maximum-Flux-Residual          L2-NORM 
          0                 1           2             5    6     1      -0.1643651435E+00       5    6    1        -0.9052327891E+01      0.2122231568E+02
          0                 2           2             4    7     1      -0.1904780484E+01       4    7    1        -0.9954272555E+02      0.2434360123E+03
          0                 3           2             4    7     1       0.1852232621E+00       4    7    1         0.9950776172E+01      0.2432115818E+02
          0                 4           2             4    7     1      -0.1261360619E-01       4    7    1        -0.6966055477E+00      0.1702956718E+01
          0                 5           2             4    7     1       0.5019043635E-03       4    7    1         0.2849165490E-01      0.6966271008E-01
          0                 6           1             4    7     1      -0.6188703185E-05       4    7    1        -0.3610849108E-03      0.8830417030E-03

    ------------------------------------------------
       NWT REQUIRED            6 OUTER ITERATIONS 
       AND A TOTAL OF         11 INNER ITERATIONS.
    ------------------------------------------------

 NO OUTPUT CONTROL FOR STRESS PERIOD   44   TIME STEP   15
 
 SOLVING FOR HEAD 
                                                   Max.-Head-Change                         Max.-Flux-Residual
  Residual-Control   Outer-Iter.   Inner-Iter.     Column Row Layer    Maximum-Head-Change  Column Row Layer    Maximum-Flux-Residual          L2-NORM 
          0                 1           2             4    6     1      -0.1113563143E+00       4    6    1        -0.6023405678E+01      0.1413474330E+02
          0                 2           2             5    8     1      -0.2835774008E-01       5    8    1        -0.1519315398E+01      0.3298239375E+01
          0                 3           2             4    7     1       0.3320835640E-01       5    8    1         0.1810425192E+01      0.4387283495E+01
          0                 4           2             4    7     1      -0.2261384609E-02       5    8    1        -0.1267707432E+00      0.3070752782E+00
          0                 5           1             4    7     1       0.8998251923E-04       5    8    1         0.5186352150E-02      0.1255828032E-01

    ------------------------------------------------
       NWT REQUIRED            5 OUTER ITERATIONS 
       AND A TOTAL OF          9 INNER ITERATIONS.
    ------------------------------------------------

 NO OUTPUT CONTROL FOR STRESS PERIOD   44   TIME STEP   16
 
 SOLVING FOR HEAD 
                                                   Max.-Head-Change                         Max.-Flux-Residual
  Residual-Control   Outer-Iter.   Inner-Iter.     Column Row Layer    Maximum-Head-Change  Column Row Layer    Maximum-Flux-Residual          L2-NORM 
          0                 1           2             4    6     1      -0.1070027222E+00       4    6    1        -0.5786178522E+01      0.1354876260E+02
          0                 2           2             4    7     1      -0.1906115300E+01       5    8    1        -0.9986516654E+02      0.2440180364E+03
          0                 3           2             4    7     1       0.1853533675E+00       4    8    1         0.9959355337E+01      0.2436995950E+02
          0                 4           2             4    7     1      -0.1262246201E-01       4    8    1        -0.6973075474E+00      0.1706334379E+01
          0                 5           2             4    7     1       0.5022567640E-03       4    8    1         0.2852157771E-01      0.6979992254E-01
          0                 6           1             4    7     1      -0.6193048464E-05       4    8    1        -0.3614831955E-03      0.8847627092E-03

    ------------------------------------------------
       NWT REQUIRED            6 OUTER ITERATIONS 
       AND A TOTAL OF         11 INNER ITERATIONS.
    ------------------------------------------------

 NO OUTPUT CONTROL FOR STRESS PERIOD   44   TIME STEP   17
 
 SOLVING FOR HEAD 
                                                   Max.-Head-Change                         Max.-Flux-Residual
  Residual-Control   Outer-Iter.   Inner-Iter.     Column Row Layer    Maximum-Head-Change  Column Row Layer    Maximum-Flux-Residual          L2-NORM 
          0                 1           2             4    6     1      -0.6670850050E-01       4    6    1        -0.3615212163E+01      0.7929092296E+01
          0                 2           2             5    8     1      -0.3303697062E-01       5    8    1        -0.1825554533E+01      0.3746321889E+01
          0                 3           2             4    8     1       0.3334686944E-01       4    8    1         0.1812056274E+01      0.4419924450E+01
          0                 4           2             4    8     1      -0.2270848132E-02       4    8    1        -0.1275228786E+00      0.2925391594E+00
          0                 5           1             4    8     1       0.9035873827E-04       4    8    1         0.5242476125E-02      0.1165422045E-01

    ------------------------------------------------
       NWT REQUIRED            5 OUTER ITERATIONS 
       AND A TOTAL OF          9 INNER ITERATIONS.
    ------------------------------------------------

 NO OUTPUT CONTROL FOR STRESS PERIOD   44   TIME STEP   18
 
 SOLVING FOR HEAD 
                                                   Max.-Head-Change                         Max.-Flux-Residual
  Residual-Control   Outer-Iter.   Inner-Iter.     Column Row Layer    Maximum-Head-Change  Column Row Layer    Maximum-Flux-Residual          L2-NORM 
          0                 1           2             4    6     1      -0.6397178896E-01       4    6    1        -0.3466173862E+01      0.7728597758E+01
          0                 2           2             4    7     1      -0.1907385191E+01       5    8    1        -0.1001545860E+03      0.2441635372E+03
          0                 3           2             4    7     1       0.1843645533E+00       4    7    1         0.1000653086E+02      0.2119203782E+02
          0                 4           2             4    7     1      -0.1255579470E-01       4    7    1        -0.7016997169E+00      0.1423299638E+01
          0                 5           2             4    7     1       0.4996002554E-03       5    7    1         0.2876957192E-01      0.5712093453E-01
          0                 6           1             4    7     1      -0.6160299135E-05       5    7    1        -0.3662273675E-03      0.7268415024E-03

    ------------------------------------------------
       NWT REQUIRED            6 OUTER ITERATIONS 
       AND A TOTAL OF         11 INNER ITERATIONS.
    ------------------------------------------------

 NO OUTPUT CONTROL FOR STRESS PERIOD   44   TIME STEP   19
 
 SOLVING FOR HEAD 
                                                   Max.-Head-Change                         Max.-Flux-Residual
  Residual-Control   Outer-Iter.   Inner-Iter.     Column Row Layer    Maximum-Head-Change  Column Row Layer    Maximum-Flux-Residual          L2-NORM 
          0                 1           2             5    8     1       0.7815683015E-01       5    8    1         0.4331483308E+01      0.6246345656E+01
          0                 2           2             5    8     1      -0.3772043550E-01       5    8    1        -0.2091438180E+01      0.4226434670E+01
          0                 3           2             5    7     1       0.3363175781E-01       5    7    1         0.1825112319E+01      0.4423646977E+01
          0                 4           2             5    7     1      -0.2290205784E-02       5    7    1        -0.1294511117E+00      0.2553953557E+00
          0                 5           1             5    7     1       0.9112930123E-04       5    7    1         0.5361703355E-02      0.9296819873E-02

    ------------------------------------------------
       NWT REQUIRED            5 OUTER ITERATIONS 
       AND A TOTAL OF          9 INNER ITERATIONS.
    ------------------------------------------------

 NO OUTPUT CONTROL FOR STRESS PERIOD   44   TIME STEP   20
 
 SOLVING FOR HEAD 
                                                   Max.-Head-Change                         Max.-Flux-Residual
  Residual-Control   Outer-Iter.   Inner-Iter.     Column Row Layer    Maximum-Head-Change  Column Row Layer    Maximum-Flux-Residual          L2-NORM 
          0                 1           2             5    8     1       0.1081845331E+01       5    8    1         0.5908833956E+02      0.6840497220E+02
          0                 2           2             4    7     1      -0.1902005525E+01       5    6    1        -0.1001315274E+03      0.2286706797E+03
          0                 3           2             4    8     1      -0.7496263568E+00       4    8    1        -0.4166248293E+02      0.5276955916E+02
          0                 4           2             5    8     1      -0.9237711439E-01       5    8    1        -0.5306472541E+01      0.6293087004E+01
          0                 5           2             5    8     1      -0.2175699178E-01       5    8    1        -0.1232887799E+01      0.1240877805E+01
          0                 6           1             5    8     1      -0.5124065241E-02       5    8    1        -0.2909623569E+00      0.2909643071E+00
          0                 7           1             5    8     1      -0.1206747742E-02       5    8    1        -0.6851483140E-01      0.6851582916E-01
          0                 8           1             5    8     1      -0.2841874918E-03       5    8    1        -0.1613511899E-01      0.1613533305E-01
          0                 9           1             5    8     1      -0.6692373932E-04       5    8    1        -0.3799644307E-02      0.3799695172E-02

    ------------------------------------------------
       NWT REQUIRED            9 OUTER ITERATIONS 
       AND A TOTAL OF         14 INNER ITERATIONS.
    ------------------------------------------------

 NO OUTPUT CONTROL FOR STRESS PERIOD   44   TIME STEP   21
 
 SOLVING FOR HEAD 
                                                   Max.-Head-Change                         Max.-Flux-Residual
  Residual-Control   Outer-Iter.   Inner-Iter.     Column Row Layer    Maximum-Head-Change  Column Row Layer    Maximum-Flux-Residual          L2-NORM 
          0                 1           2             4    8     1       0.1082460183E+01       4    8    1         0.5841356652E+02      0.8603478421E+02
          0                 2           2             4    7     1       0.2629716943E+00       4    7    1         0.1404107389E+02      0.2183506929E+02
          0                 3           2             4    7     1       0.1875644831E+00       4    7    1         0.1007648240E+02      0.1294130666E+02
          0                 4           2             4    7     1       0.1105367659E+00       4    7    1         0.5995934665E+01      0.6844342111E+01
          0                 5           2             4    7     1       0.6489673149E-01       4    7    1         0.3528759899E+01      0.3947314824E+01
          0                 6           2             4    7     1       0.3804759751E-01       4    7    1         0.2070881858E+01      0.2304102197E+01
          0                 7           2             4    7     1       0.2229468849E-01       4    7    1         0.1213918578E+01      0.1346748604E+01
          0                 8           2             4    7     1       0.1306134475E-01       4    7    1         0.7112755007E+00      0.7872443385E+00
          0                 9           2             4    7     1       0.7651387381E-02       4    7    1         0.4166915422E+00      0.4601821668E+00
          0                10           2             4    7     1       0.4482068192E-02       4    7    1         0.2440975082E+00      0.2690022128E+00
                                                   Max.-Head-Change                         Max.-Flux-Residual
  Residual-Control   Outer-Iter.   Inner-Iter.     Column Row Layer    Maximum-Head-Change  Column Row Layer    Maximum-Flux-Residual          L2-NORM 
          0                11           2             4    7     1       0.2625489806E-02       4    7    1         0.1429881962E+00      0.1572513049E+00
          0                12           2             4    7     1       0.1537937680E-02       4    7    1         0.8375899185E-01      0.9192799531E-01
          0                13           2             4    7     1       0.9008755390E-03       4    7    1         0.4906361104E-01      0.5374244220E-01
          0                14           2             4    7     1       0.5277022684E-03       4    7    1         0.2873990540E-01      0.3141978961E-01
          0                15           2             4    7     1       0.3091088413E-03       4    7    1         0.1683485201E-01      0.1836983688E-01
          0                16           1             4    7     1       0.1810640677E-03       4    7    1         0.9861241251E-02      0.1074046903E-01
          0                17           1             4    7     1       0.1060599876E-03       4    7    1         0.5776333343E-02      0.6279959353E-02
          0                18           1             4    7     1       0.6212542133E-04       4    7    1         0.3383540421E-02      0.3672026275E-02

    ------------------------------------------------
       NWT REQUIRED           18 OUTER ITERATIONS 
       AND A TOTAL OF         33 INNER ITERATIONS.
    ------------------------------------------------

 NO OUTPUT CONTROL FOR STRESS PERIOD   44   TIME STEP   22
 
 SOLVING FOR HEAD 
                                                   Max.-Head-Change                         Max.-Flux-Residual
  Residual-Control   Outer-Iter.   Inner-Iter.     Column Row Layer    Maximum-Head-Change  Column Row Layer    Maximum-Flux-Residual          L2-NORM 
          0                 1           2             5    8     1       0.1735879201E+01       5    8    1         0.9521617908E+02      0.1281826673E+03
          0                 2           2             4    7     1      -0.1902318996E+01       4    7    1        -0.9999474558E+02      0.2157952095E+03
          0                 3           2             4    8     1      -0.6831671230E+00       4    8    1        -0.3801873996E+02      0.5770151963E+02
          0                 4           2             4    6     1      -0.3014638061E+00       4    6    1        -0.1679295915E+02      0.1853244352E+02
          0                 5           2             4    6     1      -0.1804508962E+00       4    6    1        -0.1008362383E+02      0.1023782539E+02
          0                 6           2             4    6     1      -0.1078706326E+00       4    6    1        -0.6033660297E+01      0.6050555104E+01
          0                 7           2             4    6     1      -0.6444927218E-01       4    6    1        -0.3606319818E+01      0.3608615997E+01
          0                 8           2             4    6     1      -0.3849806186E-01       4    6    1        -0.2154511331E+01      0.2154974468E+01
          0                 9           2             4    6     1      -0.2299434764E-01       4    6    1        -0.1286925792E+01      0.1287074864E+01
          0                10           2             4    6     1      -0.1373367496E-01       4    6    1        -0.7686442203E+00      0.7687112356E+00
                                                   Max.-Head-Change                         Max.-Flux-Residual
  Residual-Control   Outer-Iter.   Inner-Iter.     Column Row Layer    Maximum-Head-Change  Column Row Layer    Maximum-Flux-Residual          L2-NORM 
          0                11           2             4    6     1      -0.8202463766E-02       4    6    1        -0.4590740722E+00      0.4591096506E+00
          0                12           2             4    6     1      -0.4898882970E-02       4    6    1        -0.2741781890E+00      0.2741984576E+00
          0                13           2             4    6     1      -0.2925811092E-02       4    6    1        -0.1637489724E+00      0.1637608524E+00
          0                14           2             4    6     1      -0.1747400554E-02       4    6    1        -0.9779595352E-01      0.9780299604E-01
          0                15           2             4    6     1      -0.1043604189E-02       4    6    1        -0.5840637081E-01      0.5841056439E-01
          0                16           2             4    6     1      -0.6232702343E-03       4    6    1        -0.3488162784E-01      0.3488412941E-01
          0                17           2             4    6     1      -0.3722324345E-03       4    6    1        -0.2083197800E-01      0.2083347130E-01
          0                18           2             4    6     1      -0.2223050356E-03       4    6    1        -0.1244117881E-01      0.1244207048E-01
          0                19           2             4    6     1      -0.1327644043E-03       4    6    1        -0.7430017222E-02      0.7430549723E-02
          0                20           1             4    6     1      -0.7928869443E-04       4    6    1        -0.4437265082E-02      0.4437583132E-02

    ------------------------------------------------
       NWT REQUIRED           20 OUTER ITERATIONS 
       AND A TOTAL OF         39 INNER ITERATIONS.
    ------------------------------------------------

 NO OUTPUT CONTROL FOR STRESS PERIOD   44   TIME STEP   23
 
 SOLVING FOR HEAD 
                                                   Max.-Head-Change                         Max.-Flux-Residual
  Residual-Control   Outer-Iter.   Inner-Iter.     Column Row Layer    Maximum-Head-Change  Column Row Layer    Maximum-Flux-Residual          L2-NORM 
          0                 1           2             4    8     1       0.1157866219E+01       4    8    1         0.6257996715E+02      0.9785324433E+02
          0                 2           2             5    7     1       0.3262844129E+00       5    7    1         0.1757828609E+02      0.3048322049E+02
          0                 3           2             5    6     1       0.2138040914E+00       5    6    1         0.1164364895E+02      0.1674867835E+02
          0                 4           2             5    6     1       0.1244173871E+00       5    6    1         0.6820903763E+01      0.8897988041E+01
          0                 5           2             5    6     1       0.7191299383E-01       5    6    1         0.3958097123E+01      0.5106734575E+01
          0                 6           2             5    6     1       0.4156694833E-01       5    6    1         0.2290037978E+01      0.2964506578E+01
          0                 7           2             5    6     1       0.2401391984E-01       5    6    1         0.1323462899E+01      0.1723064017E+01
          0                 8           2             5    6     1       0.1387064590E-01       5    6    1         0.7645410673E+00      0.1001591157E+01
          0                 9           2             5    6     1       0.8011302578E-02       5    6    1         0.4415962962E+00      0.5822342427E+00
          0                10           2             5    6     1       0.4627034739E-02       5    6    1         0.2550521929E+00      0.3384844247E+00
                                                   Max.-Head-Change                         Max.-Flux-Residual
  Residual-Control   Outer-Iter.   Inner-Iter.     Column Row Layer    Maximum-Head-Change  Column Row Layer    Maximum-Flux-Residual          L2-NORM 
          0                11           2             5    6     1       0.2672411211E-02       5    6    1         0.1473086286E+00      0.1967988700E+00
          0                12           2             5    6     1       0.1543503715E-02       5    6    1         0.8508031066E-01      0.1144335828E+00
          0                13           2             5    6     1       0.8914913197E-03       5    6    1         0.4913988507E-01      0.6654768744E-01
          0                14           2             5    6     1       0.5149109195E-03       5    6    1         0.2838209000E-01      0.3870451349E-01
          0                15           2             5    6     1       0.2974081514E-03       5    6    1         0.1639306655E-01      0.2251332375E-01
          0                16           2             5    6     1       0.1717827533E-03       5    6    1         0.9468514276E-02      0.1309685416E-01
          0                17           1             5    6     1       0.9922299139E-04       5    6    1         0.5469018778E-02      0.7619801781E-02

    ------------------------------------------------
       NWT REQUIRED           17 OUTER ITERATIONS 
       AND A TOTAL OF         33 INNER ITERATIONS.
    ------------------------------------------------

 NO OUTPUT CONTROL FOR STRESS PERIOD   44   TIME STEP   24
 
 SOLVING FOR HEAD 
                                                   Max.-Head-Change                         Max.-Flux-Residual
  Residual-Control   Outer-Iter.   Inner-Iter.     Column Row Layer    Maximum-Head-Change  Column Row Layer    Maximum-Flux-Residual          L2-NORM 
          0                 1           2             5    8     1       0.1726646449E+01       5    8    1         0.9482140126E+02      0.1305839046E+03
          0                 2           2             4    7     1      -0.1787786864E+01       4    7    1        -0.9655872740E+02      0.2127038163E+03
          0                 3           2             4    8     1      -0.5663659538E+00       4    8    1        -0.3116922539E+02      0.5377875659E+02
          0                 4           2             4    6     1      -0.3186110468E+00       4    6    1        -0.1777601290E+02      0.1933414360E+02
          0                 5           2             4    6     1      -0.1906895262E+00       4    6    1        -0.1065593634E+02      0.1080006762E+02
          0                 6           2             4    6     1      -0.1139858321E+00       4    6    1        -0.6375894734E+01      0.6391840708E+01
          0                 7           2             4    6     1      -0.6810213656E-01       4    6    1        -0.3810712341E+01      0.3812927986E+01
          0                 8           2             4    6     1      -0.4068038729E-01       4    6    1        -0.2276607313E+01      0.2277069850E+01
          0                 9           2             4    6     1      -0.2429821821E-01       4    6    1        -0.1359868656E+01      0.1360022330E+01
          0                10           2             4    6     1      -0.1451271182E-01       4    6    1        -0.8122240843E+00      0.8122944357E+00
                                                   Max.-Head-Change                         Max.-Flux-Residual
  Residual-Control   Outer-Iter.   Inner-Iter.     Column Row Layer    Maximum-Head-Change  Column Row Layer    Maximum-Flux-Residual          L2-NORM 
          0                11           2             4    6     1      -0.8667926495E-02       4    6    1        -0.4851115803E+00      0.4851492359E+00
          0                12           2             4    6     1      -0.5176990313E-02       4    6    1        -0.2897348926E+00      0.2897564170E+00
          0                13           2             4    6     1      -0.3091975943E-02       4    6    1        -0.1730437104E+00      0.1730563437E+00
          0                14           2             4    6     1      -0.1846681109E-02       4    6    1        -0.1033493204E+00      0.1033568135E+00
          0                15           2             4    6     1      -0.1102922270E-02       4    6    1        -0.6172435409E-01      0.6172881707E-01
          0                16           2             4    6     1      -0.6587113649E-03       4    6    1        -0.3686402221E-01      0.3686668477E-01
          0                17           2             4    6     1      -0.3934075349E-03       4    6    1        -0.2201639222E-01      0.2201798170E-01
          0                18           2             4    6     1      -0.2349564975E-03       4    6    1        -0.1314882252E-01      0.1314977166E-01
          0                19           2             4    6     1      -0.1403232107E-03       4    6    1        -0.7852805618E-02      0.7853372422E-02
          0                20           1             4    6     1      -0.8380478839E-04       4    6    1        -0.4689862420E-02      0.4690200932E-02

    ------------------------------------------------
       NWT REQUIRED           20 OUTER ITERATIONS 
       AND A TOTAL OF         39 INNER ITERATIONS.
    ------------------------------------------------

 NO OUTPUT CONTROL FOR STRESS PERIOD   44   TIME STEP   25
 
 SOLVING FOR HEAD 
                                                   Max.-Head-Change                         Max.-Flux-Residual
  Residual-Control   Outer-Iter.   Inner-Iter.     Column Row Layer    Maximum-Head-Change  Column Row Layer    Maximum-Flux-Residual          L2-NORM 
          0                 1           2             4    8     1       0.1155932237E+01       4    8    1         0.6245077859E+02      0.9744857364E+02
          0                 2           2             5    7     1       0.3955460999E+00       5    7    1         0.2139855694E+02      0.3315113184E+02
          0                 3           2             5    6     1       0.2058703718E+00       5    6    1         0.1118973024E+02      0.1724977541E+02
          0                 4           2             5    6     1       0.1199335187E+00       5    6    1         0.6569984376E+01      0.9064652045E+01
          0                 5           2             5    6     1       0.6931223552E-01       5    6    1         0.3813421600E+01      0.5195746459E+01
          0                 6           2             5    6     1       0.4007567276E-01       5    6    1         0.2207364011E+01      0.3017222318E+01
          0                 7           2             5    6     1       0.2315734074E-01       5    6    1         0.1276033110E+01      0.1754559645E+01
          0                 8           2             5    6     1       0.1337832129E-01       5    6    1         0.7372920709E+00      0.1020378830E+01
          0                 9           2             5    6     1       0.7728275524E-02       5    6    1         0.4259335491E+00      0.5934199852E+00
          0                10           2             5    6     1       0.4464319611E-02       5    6    1         0.2460477823E+00      0.3451338018E+00
                                                   Max.-Head-Change                         Max.-Flux-Residual
  Residual-Control   Outer-Iter.   Inner-Iter.     Column Row Layer    Maximum-Head-Change  Column Row Layer    Maximum-Flux-Residual          L2-NORM 
          0                11           2             4    7     1       0.2600806176E-02       5    6    1         0.1421318705E+00      0.2007463126E+00
          0                12           2             4    7     1       0.1523373008E-02       4    7    1         0.8297297397E-01      0.1167741413E+00
          0                13           2             4    7     1       0.8922723128E-03       4    7    1         0.4859971475E-01      0.6793387646E-01
          0                14           2             4    7     1       0.5226154640E-03       4    7    1         0.2846583285E-01      0.3952457586E-01
          0                15           2             4    7     1       0.3060984474E-03       4    7    1         0.1667277294E-01      0.2299795423E-01
          0                16           2             4    7     1       0.1792809807E-03       4    7    1         0.9765305809E-02      0.1338296145E-01
          0                17           1             4    7     1       0.1050029829E-03       4    7    1         0.5719500524E-02      0.7788541109E-02
          0                18           1             4    7     1       0.6149836018E-04       4    7    1         0.3349844908E-02      0.4533156136E-02

    ------------------------------------------------
       NWT REQUIRED           18 OUTER ITERATIONS 
       AND A TOTAL OF         34 INNER ITERATIONS.
    ------------------------------------------------

 NO OUTPUT CONTROL FOR STRESS PERIOD   44   TIME STEP   26
 
 SOLVING FOR HEAD 
                                                   Max.-Head-Change                         Max.-Flux-Residual
  Residual-Control   Outer-Iter.   Inner-Iter.     Column Row Layer    Maximum-Head-Change  Column Row Layer    Maximum-Flux-Residual          L2-NORM 
          0                 1           2             5    8     1       0.1718789878E+01       5    8    1         0.9450073814E+02      0.1307261632E+03
          0                 2           2             5    7     1      -0.1806251954E+01       5    7    1        -0.9841941409E+02      0.2126788893E+03
          0                 3           2             4    6     1      -0.5767391405E+00       4    6    1        -0.3164544619E+02      0.5523612236E+02
          0                 4           2             4    6     1      -0.3475869593E+00       4    6    1        -0.1932585174E+02      0.2110355018E+02
          0                 5           2             4    6     1      -0.2079928966E+00       4    6    1        -0.1162937391E+02      0.1176374981E+02
          0                 6           2             4    6     1      -0.1243214724E+00       4    6    1        -0.6954239981E+01      0.6968958722E+01
          0                 7           2             4    6     1      -0.7427629222E-01       4    6    1        -0.4156232074E+01      0.4158345893E+01
          0                 8           2             4    6     1      -0.4424652394E-01       4    6    1        -0.2480062282E+01      0.2480582543E+01
          0                 9           2             4    6     1      -0.2638194918E-01       4    6    1        -0.1478802949E+01      0.1478992884E+01
          0                10           2             4    6     1      -0.1572965775E-01       4    6    1        -0.8817142327E+00      0.8818056313E+00
                                                   Max.-Head-Change                         Max.-Flux-Residual
  Residual-Control   Outer-Iter.   Inner-Iter.     Column Row Layer    Maximum-Head-Change  Column Row Layer    Maximum-Flux-Residual          L2-NORM 
          0                11           2             4    6     1      -0.9378298460E-02       4    6    1        -0.5256928036E+00      0.5257427530E+00
          0                12           2             4    6     1      -0.5591447034E-02       4    6    1        -0.3134219450E+00      0.3134507106E+00
          0                13           2             4    6     1      -0.3333657151E-02       4    6    1        -0.1868626469E+00      0.1868795631E+00
          0                14           2             4    6     1      -0.1987534370E-02       4    6    1        -0.1114069506E+00      0.1114169814E+00
          0                15           2             4    6     1      -0.1184965009E-02       4    6    1        -0.6642004081E-01      0.6642600823E-01
          0                16           2             4    6     1      -0.7064698453E-03       4    6    1        -0.3959890544E-01      0.3960246012E-01
          0                17           2             4    6     1      -0.4211908986E-03       4    6    1        -0.2360828631E-01      0.2361040486E-01
          0                18           2             4    6     1      -0.2511085949E-03       4    6    1        -0.1407482479E-01      0.1407608767E-01
          0                19           2             4    6     1      -0.1497067667E-03       4    6    1        -0.8391097861E-02      0.8391850745E-02
          0                20           1             4    6     1      -0.8925211941E-04       4    6    1        -0.5002554517E-02      0.5003003388E-02

    ------------------------------------------------
       NWT REQUIRED           20 OUTER ITERATIONS 
       AND A TOTAL OF         39 INNER ITERATIONS.
    ------------------------------------------------

 NO OUTPUT CONTROL FOR STRESS PERIOD   44   TIME STEP   27
 
 SOLVING FOR HEAD 
                                                   Max.-Head-Change                         Max.-Flux-Residual
  Residual-Control   Outer-Iter.   Inner-Iter.     Column Row Layer    Maximum-Head-Change  Column Row Layer    Maximum-Flux-Residual          L2-NORM 
          0                 1           2             4    8     1       0.1156117165E+01       4    8    1         0.6244280258E+02      0.9773019692E+02
          0                 2           2             5    7     1       0.4578140212E+00       5    7    1         0.2483868736E+02      0.3571941782E+02
          0                 3           2             5    6     1       0.1971372848E+00       5    6    1         0.1068818177E+02      0.1777292187E+02
          0                 4           2             4    7     1       0.1163431634E+00       5    6    1         0.6293454064E+01      0.9172059377E+01
          0                 5           2             4    7     1       0.6842848409E-01       4    7    1         0.3716467673E+01      0.5247303124E+01
          0                 6           2             4    7     1       0.4014260101E-01       4    7    1         0.2184101860E+01      0.3048512500E+01
          0                 7           2             4    7     1       0.2352628127E-01       4    7    1         0.1280886541E+01      0.1774066546E+01
          0                 8           2             4    7     1       0.1378291874E-01       4    7    1         0.7506016969E+00      0.1032504512E+01
          0                 9           2             4    7     1       0.8073578419E-02       4    7    1         0.4397226557E+00      0.6009221816E+00
          0                10           2             4    7     1       0.4728941597E-02       4    7    1         0.2575706188E+00      0.3497570023E+00
                                                   Max.-Head-Change                         Max.-Flux-Residual
  Residual-Control   Outer-Iter.   Inner-Iter.     Column Row Layer    Maximum-Head-Change  Column Row Layer    Maximum-Flux-Residual          L2-NORM 
          0                11           2             4    7     1       0.2769799439E-02       4    7    1         0.1508658591E+00      0.2035857618E+00
          0                12           2             4    7     1       0.1622274227E-02       4    7    1         0.8836365138E-01      0.1185129289E+00
          0                13           2             4    7     1       0.9501534317E-03       4    7    1         0.5175454411E-01      0.6899585628E-01
          0                14           2             4    7     1       0.5564902060E-03       4    7    1         0.3031217275E-01      0.4017165471E-01
          0                15           2             4    7     1       0.3259237187E-03       4    7    1         0.1775333900E-01      0.2339140747E-01
          0                16           2             4    7     1       0.1908838766E-03       4    7    1         0.1039771049E-01      0.1362172963E-01
          0                17           1             4    7     1       0.1117937342E-03       4    7    1         0.6089620878E-02      0.7933145955E-02
          0                18           1             4    7     1       0.6547277572E-04       4    7    1         0.3566463124E-02      0.4620597524E-02

    ------------------------------------------------
       NWT REQUIRED           18 OUTER ITERATIONS 
       AND A TOTAL OF         34 INNER ITERATIONS.
    ------------------------------------------------

 NO OUTPUT CONTROL FOR STRESS PERIOD   44   TIME STEP   28
 
 SOLVING FOR HEAD 
                                                   Max.-Head-Change                         Max.-Flux-Residual
  Residual-Control   Outer-Iter.   Inner-Iter.     Column Row Layer    Maximum-Head-Change  Column Row Layer    Maximum-Flux-Residual          L2-NORM 
          0                 1           2             5    8     1       0.1713363502E+01       5    8    1         0.9424417091E+02      0.1320184898E+03
          0                 2           2             5    7     1      -0.1819419554E+01       5    7    1        -0.9920573902E+02      0.2120954877E+03
          0                 3           2             4    6     1      -0.6197348845E+00       4    6    1        -0.3406384007E+02      0.5387627187E+02
          0                 4           2             4    6     1      -0.3736247048E+00       4    6    1        -0.2076257388E+02      0.2271452041E+02
          0                 5           2             4    6     1      -0.2240131709E+00       4    6    1        -0.1250132098E+02      0.1270671134E+02
          0                 6           2             4    6     1      -0.1338068526E+00       4    6    1        -0.7491110006E+01      0.7515844538E+01
          0                 7           2             4    6     1      -0.7984266294E-01       4    6    1        -0.4472972979E+01      0.4476993822E+01
          0                 8           2             4    6     1      -0.4762499022E-01       4    6    1        -0.2668760591E+01      0.2669761167E+01
          0                 9           2             4    6     1      -0.2840344330E-01       4    6    1        -0.1591797917E+01      0.1592171399E+01
          0                10           2             4    6     1      -0.1693870453E-01       4    6    1        -0.9493168812E+00      0.9494968293E+00
                                                   Max.-Head-Change                         Max.-Flux-Residual
  Residual-Control   Outer-Iter.   Inner-Iter.     Column Row Layer    Maximum-Head-Change  Column Row Layer    Maximum-Flux-Residual          L2-NORM 
          0                11           2             4    6     1      -0.1010129677E-01       4    6    1        -0.5661234218E+00      0.5662215335E+00
          0                12           2             4    6     1      -0.6023759062E-02       4    6    1        -0.3375982773E+00      0.3376546890E+00
          0                13           2             4    6     1      -0.3592145000E-02       4    6    1        -0.2013183852E+00      0.2013515353E+00
          0                14           2             4    6     1      -0.2142085608E-02       4    6    1        -0.1200501500E+00      0.1200698024E+00
          0                15           2             4    6     1      -0.1277370354E-02       4    6    1        -0.7158776094E-01      0.7159945254E-01
          0                16           2             4    6     1      -0.7617176514E-03       4    6    1        -0.4268860297E-01      0.4269556829E-01
          0                17           2             4    6     1      -0.4542222813E-03       4    6    1        -0.2545553940E-01      0.2545969130E-01
          0                18           2             4    6     1      -0.2708570189E-03       4    6    1        -0.1517923565E-01      0.1518171109E-01
          0                19           2             4    6     1      -0.1615135661E-03       4    6    1        -0.9051379049E-02      0.9052855061E-02
          0                20           1             4    6     1      -0.9631083994E-04       4    6    1        -0.5397303691E-02      0.5398183915E-02

    ------------------------------------------------
       NWT REQUIRED           20 OUTER ITERATIONS 
       AND A TOTAL OF         39 INNER ITERATIONS.
    ------------------------------------------------

 NO OUTPUT CONTROL FOR STRESS PERIOD   44   TIME STEP   29
 
 SOLVING FOR HEAD 
                                                   Max.-Head-Change                         Max.-Flux-Residual
  Residual-Control   Outer-Iter.   Inner-Iter.     Column Row Layer    Maximum-Head-Change  Column Row Layer    Maximum-Flux-Residual          L2-NORM 
          0                 1           2             4    8     1       0.1088083764E+01       4    8    1         0.5879093208E+02      0.9533305840E+02
          0                 2           2             5    8     1      -0.1785066561E+01       5    8    1        -0.9883837819E+02      0.2113760328E+03
          0                 3           2             5    7     1      -0.8503651378E+00       5    7    1        -0.4735787984E+02      0.7713026239E+02
          0                 4           2             4    8     1      -0.3649621644E+00       4    8    1        -0.2041491454E+02      0.2387296444E+02
          0                 5           2             4    8     1      -0.2183911387E+00       4    8    1        -0.1220185631E+02      0.1229572784E+02
          0                 6           2             4    8     1      -0.3386333479E-01       4    8    1        -0.1891936143E+01      0.1918554351E+01
          0                 7           2             4    8     1       0.2306941940E-02       4    8    1         0.1325676197E+00      0.1528806063E+00
          0                 8           2             4    6     1      -0.3262177497E-03       4    6    1        -0.1825814428E-01      0.1904790905E-01
          0                 9           1             4    6     1      -0.7826020483E-04       4    6    1        -0.4380138014E-02      0.4380734110E-02

    ------------------------------------------------
       NWT REQUIRED            9 OUTER ITERATIONS 
       AND A TOTAL OF         17 INNER ITERATIONS.
    ------------------------------------------------

 NO OUTPUT CONTROL FOR STRESS PERIOD   44   TIME STEP   30



 STREAM LISTING     PERIOD     44   STEP       30

 LAYER ROW COL. STREAM  RCH.  FLOW INTO     FLOW TO   FLOW OUT OF   OVRLND.     DIRECT     STREAM       STREAM     STREAM     STREAM   STREAMBED  STREAMBED
                SEG.NO.  NO.  STRM. RCH.    AQUIFER    STRM. RCH.    RUNOFF     PRECIP       ET          HEAD       DEPTH      WIDTH   CONDCTNC.   GRADIENT

   1    1    1     1     1    2.7749E+01  2.5751E-01   2.7492E+01  0.000E+00  0.000E+00  0.000E+00  1.09427E+03  1.218E+00  1.357E+01  6.105E-02  1.406E+00
   1    2    2     1     2    2.7492E+01  3.9832E-01   2.7093E+01  0.000E+00  0.000E+00  0.000E+00  1.08927E+03  1.213E+00  1.351E+01  9.454E-02  1.404E+00
   1    3    3     1     3    2.7093E+01  3.3923E-01   2.6754E+01  0.000E+00  0.000E+00  0.000E+00  1.08363E+03  1.208E+00  1.344E+01  8.062E-02  1.403E+00
   1    3    4     1     4    2.6754E+01  3.1200E-01   2.6442E+01  0.000E+00  0.000E+00  0.000E+00  1.07861E+03  1.203E+00  1.337E+01  7.422E-02  1.401E+00
   1    4    5     2     1    2.4442E+01  3.2655E-01   2.4116E+01  0.000E+00  0.000E+00  0.000E+00  1.07312E+03  1.187E+00  1.200E+01  7.800E-02  1.396E+00
   1    5    6     2     2    2.4116E+01  2.5068E-01   2.3865E+01  0.000E+00  0.000E+00  0.000E+00  1.06769E+03  1.178E+00  1.200E+01  6.000E-02  1.393E+00
   1    6    6     2     3    2.3865E+01  2.5024E-01   2.3615E+01  0.000E+00  0.000E+00  0.000E+00  1.06296E+03  1.171E+00  1.200E+01  6.000E-02  1.390E+00
   1    7    6     2     4    2.3615E+01  2.4979E-01   2.3365E+01  0.000E+00  0.000E+00  0.000E+00  1.05824E+03  1.163E+00  1.200E+01  6.000E-02  1.388E+00
   1    8    6     2     5    2.3365E+01  2.4935E-01   2.3115E+01  0.000E+00  0.000E+00  0.000E+00  1.05351E+03  1.156E+00  1.200E+01  6.000E-02  1.385E+00
   1    3    5     3     1    2.0000E+00  2.8252E-01   1.7175E+00  0.000E+00  0.000E+00  0.000E+00  1.07555E+03  1.909E+00  9.636E+00  7.227E-02  1.955E+00
   1    3    6     3     2    1.7175E+00  2.4905E-01   1.4684E+00  0.000E+00  0.000E+00  0.000E+00  1.07264E+03  1.727E+00  8.909E+00  6.682E-02  1.864E+00
   1    3    7     3     3    1.4684E+00  1.9718E-01   1.2712E+00  0.000E+00  0.000E+00  0.000E+00  1.06987E+03  1.555E+00  8.218E+00  5.547E-02  1.777E+00
   1    4    8     3     4    1.2712E+00  2.2567E-01   1.0456E+00  0.000E+00  0.000E+00  0.000E+00  1.06682E+03  1.364E+00  7.455E+00  6.709E-02  1.682E+00
   1    5    8     3     5    1.0456E+00  1.5790E-01   8.8768E-01  0.000E+00  0.000E+00  0.000E+00  1.06362E+03  1.164E+00  6.655E+00  4.991E-02  1.582E+00
   1    6    8     3     6    8.8768E-01  5.5980E-02   8.3170E-01  0.000E+00  0.000E+00  0.000E+00  1.06158E+03  1.036E+00  6.145E+00  1.844E-02  1.518E+00
   1    5   10     4     1    1.0000E+01  9.0919E-02   9.9091E+00  0.000E+00  0.000E+00  0.000E+00  1.07836E+03  6.368E-01  1.000E+01  2.500E-02  1.212E+00
   1    5    9     4     2    9.9091E+00  1.8158E-01   9.7275E+00  0.000E+00  0.000E+00  0.000E+00  1.07154E+03  6.315E-01  1.000E+01  5.000E-02  1.211E+00
   1    6    8     4     3    9.7275E+00  1.2689E-01   9.6006E+00  0.000E+00  0.000E+00  0.000E+00  1.06381E+03  6.256E-01  1.000E+01  3.500E-02  1.209E+00
   1    6    8     5     1    1.0432E+01  2.2686E-01   1.0205E+01  0.000E+00  0.000E+00  0.000E+00  1.05868E+03  6.790E-01  1.542E+01  6.166E-02  1.226E+00
   1    7    7     5     2    1.0205E+01  2.7894E-01   9.9265E+00  0.000E+00  0.000E+00  0.000E+00  1.05417E+03  6.732E-01  1.519E+01  7.594E-02  1.224E+00
   1    8    7     5     3    9.9265E+00  1.9221E-01   9.7343E+00  0.000E+00  0.000E+00  0.000E+00  1.04992E+03  6.676E-01  1.497E+01  5.241E-02  1.223E+00
   1    8    6     5     4    9.7343E+00  1.3577E-01   9.5985E+00  0.000E+00  0.000E+00  0.000E+00  1.04691E+03  6.637E-01  1.482E+01  3.706E-02  1.221E+00
   1    9    6     6     1    9.5985E+00  2.2097E-01   9.3776E+00  0.000E+00  0.000E+00  0.000E+00  1.04341E+03  6.828E-01  1.200E+01  6.000E-02  1.228E+00
   1   10    7     6     2    9.3776E+00  2.2039E-01   9.1572E+00  0.000E+00  0.000E+00  0.000E+00  1.03885E+03  6.732E-01  1.200E+01  6.000E-02  1.224E+00
   1   11    7     6     3    9.1572E+00  2.1981E-01   8.9374E+00  0.000E+00  0.000E+00  0.000E+00  1.03430E+03  6.636E-01  1.200E+01  6.000E-02  1.221E+00
   1   12    7     6     4    8.9374E+00  2.1923E-01   8.7181E+00  0.000E+00  0.000E+00  0.000E+00  1.02974E+03  6.539E-01  1.200E+01  6.000E-02  1.218E+00
   1   13    7     6     5    8.7181E+00 -5.5558E-02   8.7737E+00  0.000E+00  0.000E+00  0.000E+00  1.02656E+03  6.502E-01  1.200E+01  2.400E-01 -7.716E-02
   1   14    9     7     1    1.5000E+02  1.3762E+00   1.4862E+02  0.000E+00  0.000E+00  0.000E+00  1.03987E+03  2.288E+00  5.529E+01  5.593E-01  8.202E-01
   1   13    8     7     2    1.4862E+02  1.9402E+00   1.4668E+02  0.000E+00  0.000E+00  0.000E+00  1.03478E+03  2.279E+00  5.525E+01  6.147E-01  1.052E+00
   1   13    7     7     3    1.4668E+02  1.6181E+00   1.4507E+02  0.000E+00  0.000E+00  0.000E+00  1.02969E+03  2.269E+00  5.521E+01  5.584E-01  9.659E-01
   1   13    6     8     1    1.5384E+02  9.6193E-01   1.5288E+02  0.000E+00  0.000E+00  0.000E+00  1.02472E+03  2.840E+00  4.118E+01  4.197E-01  7.640E-01
   1   13    5     8     2    1.5288E+02  2.2050E-01   1.5266E+02  0.000E+00  0.000E+00  0.000E+00  1.01846E+03  2.836E+00  4.113E+01  4.191E-01  1.754E-01
   1   13    4     8     3    1.5266E+02 -2.3575E+00   1.5501E+02  0.000E+00  0.000E+00  0.000E+00  1.01222E+03  2.844E+00  4.123E+01  4.202E+00 -1.870E-01
   1   13    3     8     4    1.5501E+02 -3.6628E+00   1.5868E+02  0.000E+00  0.000E+00  0.000E+00  1.00599E+03  2.864E+00  4.153E+01  4.232E+00 -2.885E-01
   1   13    2     8     5    1.5868E+02 -2.7002E+00   1.6138E+02  0.000E+00  0.000E+00  0.000E+00  9.99761E+02  2.886E+00  4.185E+01  4.264E+00 -2.111E-01
   1   13    1     8     6    1.6138E+02 -2.0772E+00   1.6345E+02  0.000E+00  0.000E+00  0.000E+00  9.94777E+02  2.902E+00  4.208E+01  2.573E+00 -2.691E-01
   1    8    6     9     1    2.3115E+01  0.0000E+00   2.3115E+01  0.000E+00  0.000E+00  0.000E+00  1.08250E+03  3.746E+00  4.000E+00  0.000E+00  2.249E+00
   1    8    5     9     2    2.3115E+01  0.0000E+00   2.3115E+01  0.000E+00  0.000E+00  0.000E+00  1.08200E+03  3.746E+00  4.000E+00  0.000E+00  2.249E+00





UNSATURATED ZONE PACKAGE VOLUMETRIC BUDGET FOR  TIME STEP    30 STRESS PERIOD   44
  ------------------------------------------------------------------------------



     CUMULATIVE VOLUMES      L**3       RATES FOR THIS TIME STEP      L**3/T
     ------------------                 ------------------------

           IN:                                      IN:
           ---                                      ---
        INFILTRATION = 12173326833.2073          INFILTRATION =         623.9634

          OUT:                                     OUT:
          ----                                     ----
              UZF ET =  1540999666.9771                UZF ET =          60.8175
        UZF RECHARGE =  9909316709.3451          UZF RECHARGE =          28.9339

            IN - OUT =   723010456.8851              IN - OUT =         534.2120

          STORAGE:                                 STORAGE:
          --------                                 --------
      STORAGE CHANGE =   724461179.5745        STORAGE CHANGE =         534.2120

 PERCENT DISCREPANCY IS DIFFERENCE BETWEEN IN-OUT MINUS CHANGE IN STORAGE
 DIVIDED BY THE AVERAGE OF IN AND OUT TIMES 100

 PERCENT DISCREPANCY =          -0.00     PERCENT DISCREPANCY =          -0.00






1
  VOLUMETRIC BUDGET FOR AGRICULTURAL FIELDS AT  END OF TIME STEP   30, STRESS PERIOD  44
  ------------------------------------------------------------------------------

     CUMULATIVE VOLUMES      L**3       RATES FOR THIS TIME STEP      L**3/T
     ------------------                 ------------------------

           IN:                                      IN:
           ---                                      ---
               AG WELLS  = 10922546176.0000                 AG WELLS  =         600.0000
      DIVERSION SEGMENTS =  1154871424.0000        DIVERSION SEGMENTS =          23.1155
       IRRIGATION PONDS  =           0.0000         IRRIGATION PONDS  =           0.0000
           GW IRRIGATION =           0.0000             GW IRRIGATION =           0.0000
           SW IRRIGATION =           0.0000             SW IRRIGATION =           0.0000
        SYSTEM LOSSES GW =           0.0000          SYSTEM LOSSES GW =           0.0000
        SYSTEM LOSSES SW =           0.0000          SYSTEM LOSSES SW =           0.0000

                TOTAL IN = 12077417472.0000                  TOTAL IN =         623.1155

          OUT:                                     OUT:
          ----                                     ----
               AG WELLS  =           0.0000                 AG WELLS  =           0.0000
      DIVERSION SEGMENTS =           0.0000        DIVERSION SEGMENTS =           0.0000
       IRRIGATION PONDS  =           0.0000         IRRIGATION PONDS  =           0.0000
           GW IRRIGATION = 10922546176.0000             GW IRRIGATION =         600.0000
           SW IRRIGATION =  1154891520.0000             SW IRRIGATION =          23.1159
        SYSTEM LOSSES GW =           0.0000          SYSTEM LOSSES GW =           0.0000
        SYSTEM LOSSES SW =           0.0000          SYSTEM LOSSES SW =           0.0000

               TOTAL OUT = 12077437952.0000                 TOTAL OUT =         623.1160

                IN - OUT =      -20480.0000                  IN - OUT =      -4.8828E-04

     PERCENT DISCREPANCY =          -0.00         PERCENT DISCREPANCY =          -0.00



1
  VOLUMETRIC BUDGET FOR ENTIRE MODEL AT END OF TIME STEP   30, STRESS PERIOD  44
  ------------------------------------------------------------------------------

     CUMULATIVE VOLUMES      L**3       RATES FOR THIS TIME STEP      L**3/T
     ------------------                 ------------------------

           IN:                                      IN:
           ---                                      ---
             STORAGE     =  9242107904.0000               STORAGE     =         570.5997
       CONSTANT HEAD     =           0.0000         CONSTANT HEAD     =           0.0000
     HEAD DEP BOUNDS     =    32469022.0000       HEAD DEP BOUNDS     =           0.2885
      STREAM LEAKAGE     =  1402372608.0000        STREAM LEAKAGE     =          12.0325
        UZF RECHARGE     =  9909312512.0000          UZF RECHARGE     =          28.9339
               GW ET     =           0.0000                 GW ET     =           0.0000
     SURFACE LEAKAGE     =           0.0000       SURFACE LEAKAGE     =           0.0000
           AG WELLS      =           0.0000             AG WELLS      =           0.0000

                TOTAL IN = 20586262528.0000                  TOTAL IN =         611.8546

          OUT:                                     OUT:
          ----                                     ----
             STORAGE     =  8474607104.0000               STORAGE     =           0.7143
       CONSTANT HEAD     =           0.0000         CONSTANT HEAD     =           0.0000
     HEAD DEP BOUNDS     =    32882664.0000       HEAD DEP BOUNDS     =           0.2882
      STREAM LEAKAGE     =  1154596352.0000        STREAM LEAKAGE     =          10.8532
        UZF RECHARGE     =           0.0000          UZF RECHARGE     =           0.0000
               GW ET     =     1532757.2500                 GW ET     =           0.0000
     SURFACE LEAKAGE     =           0.0000       SURFACE LEAKAGE     =           0.0000
           AG WELLS      = 10922546176.0000             AG WELLS      =         600.0000

               TOTAL OUT = 20586164224.0000                 TOTAL OUT =         611.8557

                IN - OUT =       98304.0000                  IN - OUT =      -1.0376E-03

     PERCENT DISCREPANCY =           0.00         PERCENT DISCREPANCY =          -0.00






         TIME SUMMARY AT END OF TIME STEP   30 IN STRESS PERIOD   44
                    SECONDS     MINUTES      HOURS       DAYS        YEARS
                    -----------------------------------------------------------
   TIME STEP LENGTH  87667.      1461.1      24.352      1.0147     2.77799E-03
 STRESS PERIOD TIME 2.63000E+06  43833.      730.56      30.440     8.33397E-02
         TOTAL TIME 1.13175E+08 1.88626E+06  31438.      1309.9      3.5863    
1
1
                            STRESS PERIOD NO.   45, LENGTH =   2630000.    
                            -----------------------------------------------

                              NUMBER OF TIME STEPS =    30

                               MULTIPLIER FOR DELT =     1.000

                            INITIAL TIME STEP SIZE =   87666.66    

 REUSING NON-PARAMETER GHB CELLS FROM LAST STRESS PERIOD

      2 GHB CELLS

 REUSING STREAM SEGMENT DATA FROM LAST STRESS PERIOD



            AREAL INFILTRATION RATE
 READING ON UNIT   19 WITH FORMAT: (FREE)              

            1           2           3           4           5           6           7           8           9          10
 ........................................................................................................................
   1   1.0000E-10  2.0000E-10   0.000       0.000       0.000       0.000       0.000       0.000       0.000       0.000    
   2   2.0000E-10  1.0000E-10  2.0000E-10   0.000       0.000      8.0000E-10  8.0000E-10  5.0000E-10   0.000       0.000    
   3    0.000      5.0000E-10  1.0000E-10  1.0000E-10  8.0000E-10  8.0000E-10  5.0000E-10  5.0000E-10   0.000       0.000    
   4   8.0000E-10  5.0000E-10  1.0000E-10  1.0000E-10  1.0000E-10  1.0000E-10  1.0000E-10  1.0000E-10  2.0000E-10   0.000    
   5   8.0000E-10  5.0000E-10  1.0000E-10  1.0000E-10  1.0000E-10  1.0000E-10  1.0000E-10  1.0000E-10  1.0000E-10  1.0000E-10
   6   8.0000E-10  5.0000E-10  5.0000E-10  2.0000E-10  2.0000E-10  1.0000E-10  1.0000E-10  1.0000E-10  1.0000E-10  5.0000E-10
   7   8.0000E-10  5.0000E-10  5.0000E-10  2.0000E-10  2.0000E-10  1.0000E-10  1.0000E-10  2.0000E-10  2.0000E-10   0.000    
   8    0.000      5.0000E-10  5.0000E-10  2.0000E-10  2.0000E-10  1.0000E-10  1.0000E-10  2.0000E-10  5.0000E-10   0.000    
   9    0.000      5.0000E-10  5.0000E-10  2.0000E-10  2.0000E-10  1.0000E-10  1.0000E-10  2.0000E-10  5.0000E-10   0.000    
  10    0.000      5.0000E-10  5.0000E-10  2.0000E-10  2.0000E-10  1.0000E-10  1.0000E-10  2.0000E-10  5.0000E-10  8.0000E-10
  11    0.000      1.0000E-10  1.0000E-10  1.0000E-10  1.0000E-10  1.0000E-10  1.0000E-10  2.0000E-10  5.0000E-10   0.000    
  12   1.0000E-10  1.0000E-10  1.0000E-10  1.0000E-10  1.0000E-10  1.0000E-10  1.0000E-10  1.0000E-10  2.0000E-10   0.000    
  13   1.0000E-10  1.0000E-10  2.0000E-10  2.0000E-10  2.0000E-10  2.0000E-10  2.0000E-10  1.0000E-10  1.0000E-10   0.000    
  14    0.000      2.0000E-10  5.0000E-10  5.0000E-10  5.0000E-10  5.0000E-10  5.0000E-10  2.0000E-10  1.0000E-10   0.000    
  15    0.000       0.000      8.0000E-10  8.0000E-10  8.0000E-10  8.0000E-10   0.000       0.000       0.000       0.000    

                  ET RATE =  3.250000E-07

 USING ET EXTINCTION DEPTH FROM PREVIOUS STRESS PERIOD. CURRENT PERIOD IS:      45

 USING EXTINCTION WATER CONTENT FROM PREVIOUS STRESS PERIOD. CURRENT PERIOD IS:      45

 USING AIR ENTRY PRESSURE FROM PREVIOUS STRESS PERIOD. CURRENT PERIOD IS:      45

 USING ROOT PRESSURE HEAD FROM PREVIOUS STRESS PERIOD. CURRENT PERIOD IS:      45

 USING ROOT ACTIVITY FROM PREVIOUS STRESS PERIOD. CURRENT PERIOD IS:      45

 PROCESSING AG STRESS PERIOD DATA

 READING AG STRESS PERIOD DATA

 READING IRRIGATION SEGMENT

 READING IRRIGATION WELL

 READING SUPPLEMENTAL WELL

 NO IRRPOND OR REUSING IRRPOND DATA FROM LAST STRESS PERIOD

 END PROCESSING AG STRESS PERIOD DATA OPTIONS
 
 SOLVING FOR HEAD 
                                                   Max.-Head-Change                         Max.-Flux-Residual
  Residual-Control   Outer-Iter.   Inner-Iter.     Column Row Layer    Maximum-Head-Change  Column Row Layer    Maximum-Flux-Residual          L2-NORM 
          0                 1           2             5    6     1       0.1267989994E+01       5    6    1         0.6907712640E+02      0.1142546435E+03
          0                 2           2             5    8     1       0.4328083828E+00       5    8    1         0.2363403615E+02      0.3587348752E+02
          0                 3           2             5    8     1       0.2511579962E+00       5    8    1         0.1380133206E+02      0.1686326309E+02
          0                 4           2             5    8     1       0.1139779511E+00       5    8    1         0.6275096532E+01      0.7991069614E+01
          0                 5           2             4    6     1       0.5157745421E-01       4    6    1         0.2807351609E+01      0.3133689211E+01
          0                 6           2             4    6     1       0.3020282072E-01       4    6    1         0.1645626101E+01      0.1673926392E+01
          0                 7           2             4    6     1       0.1767618091E-01       4    6    1         0.9634810279E+00      0.9660550435E+00
          0                 8           2             4    6     1       0.1034271591E-01       4    6    1         0.5638392104E+00      0.5641590450E+00
          0                 9           2             4    6     1       0.6051236235E-02       4    6    1         0.3299061378E+00      0.3299859058E+00
          0                10           2             4    6     1       0.3540294330E-02       4    6    1         0.1930170475E+00      0.1930524580E+00
                                                   Max.-Head-Change                         Max.-Flux-Residual
  Residual-Control   Outer-Iter.   Inner-Iter.     Column Row Layer    Maximum-Head-Change  Column Row Layer    Maximum-Flux-Residual          L2-NORM 
          0                11           2             4    6     1       0.2071233493E-02       4    6    1         0.1129247923E+00      0.1129440159E+00
          0                12           2             4    6     1       0.1211759858E-02       4    6    1         0.6606605368E-01      0.6607704696E-01
          0                13           2             4    6     1       0.7089297426E-03       4    6    1         0.3865143557E-01      0.3865781626E-01
          0                14           2             4    6     1       0.4147529547E-03       4    6    1         0.2261268720E-01      0.2261640910E-01
          0                15           2             4    6     1       0.2426473998E-03       4    6    1         0.1322934780E-01      0.1323152280E-01
          0                16           2             4    6     1       0.1419586104E-03       4    6    1         0.7739708017E-02      0.7740979965E-02
          0                17           1             4    6     1       0.8305156366E-04       4    6    1         0.4528044349E-02      0.4528788460E-02

    ------------------------------------------------
       NWT REQUIRED           17 OUTER ITERATIONS 
       AND A TOTAL OF         33 INNER ITERATIONS.
    ------------------------------------------------

 NO OUTPUT CONTROL FOR STRESS PERIOD   45   TIME STEP    1
 
 SOLVING FOR HEAD 
                                                   Max.-Head-Change                         Max.-Flux-Residual
  Residual-Control   Outer-Iter.   Inner-Iter.     Column Row Layer    Maximum-Head-Change  Column Row Layer    Maximum-Flux-Residual          L2-NORM 
          0                 1           2             4    8     1       0.1370198782E+01       4    8    1         0.7422077748E+02      0.1133171335E+03
          0                 2           2             5    8     1      -0.1778094361E+01       5    8    1        -0.9890503717E+02      0.2025194915E+03
          0                 3           2             5    7     1      -0.7529621860E+00       5    7    1        -0.4195368927E+02      0.7021802191E+02
          0                 4           2             5    7     1      -0.4426982122E+00       5    7    1        -0.2518973802E+02      0.3242272739E+02
          0                 5           2             5    7     1      -0.2600931621E+00       5    7    1        -0.1475314882E+02      0.1883956076E+02
          0                 6           2             4    8     1      -0.1247709090E+00       4    8    1        -0.6971898372E+01      0.7053135475E+01
          0                 7           2             4    8     1      -0.7466076020E-01       4    8    1        -0.4171680554E+01      0.4172583229E+01
          0                 8           2             4    8     1      -0.4467533373E-01       4    8    1        -0.2496223543E+01      0.2496296484E+01
          0                 9           2             4    8     1      -0.2673253497E-01       4    8    1        -0.1493660706E+01      0.1493670647E+01
          0                10           2             4    8     1      -0.1599593575E-01       4    8    1        -0.8937528531E+00      0.8937554194E+00
                                                   Max.-Head-Change                         Max.-Flux-Residual
  Residual-Control   Outer-Iter.   Inner-Iter.     Column Row Layer    Maximum-Head-Change  Column Row Layer    Maximum-Flux-Residual          L2-NORM 
          0                11           2             4    8     1      -0.9571420765E-02       4    8    1        -0.5347861179E+00      0.5347872936E+00
          0                12           2             4    8     1      -0.5727174837E-02       4    8    1        -0.3199927038E+00      0.3199933643E+00
          0                13           2             4    8     1      -0.3426902558E-02       4    8    1        -0.1914684897E+00      0.1914688788E+00
          0                14           2             4    8     1      -0.2050502730E-02       4    8    1        -0.1145649670E+00      0.1145651988E+00
          0                15           2             4    8     1      -0.1226919950E-02       4    8    1        -0.6854939755E-01      0.6854953597E-01
          0                16           2             4    8     1      -0.7341239338E-03       4    8    1        -0.4101594596E-01      0.4101602873E-01
          0                17           2             4    8     1      -0.4392581376E-03       4    8    1        -0.2454138689E-01      0.2454143640E-01
          0                18           2             4    8     1      -0.2628255160E-03       4    8    1        -0.1468394504E-01      0.1468397465E-01
          0                19           2             4    8     1      -0.1572579143E-03       4    8    1        -0.8785847802E-02      0.8785865522E-02
          0                20           1             4    8     1      -0.9409244931E-04       4    8    1        -0.5256805129E-02      0.5256815730E-02

    ------------------------------------------------
       NWT REQUIRED           20 OUTER ITERATIONS 
       AND A TOTAL OF         39 INNER ITERATIONS.
    ------------------------------------------------

 NO OUTPUT CONTROL FOR STRESS PERIOD   45   TIME STEP    2
 
 SOLVING FOR HEAD 
                                                   Max.-Head-Change                         Max.-Flux-Residual
  Residual-Control   Outer-Iter.   Inner-Iter.     Column Row Layer    Maximum-Head-Change  Column Row Layer    Maximum-Flux-Residual          L2-NORM 
          0                 1           2             5    7     1       0.1261868554E+01       5    6    1         0.6789339118E+02      0.1301026550E+03
          0                 2           2             5    8     1       0.4136823465E+00       5    8    1         0.2242337196E+02      0.3821651228E+02
          0                 3           2             5    8     1       0.2395796611E+00       5    8    1         0.1313793840E+02      0.1637945333E+02
          0                 4           2             5    8     1       0.1328352898E+00       5    8    1         0.7319069809E+01      0.8429900693E+01
          0                 5           2             5    8     1       0.6388364050E-01       5    8    1         0.3509351480E+01      0.4635552432E+01
          0                 6           2             4    6     1       0.3053001620E-01       4    6    1         0.1661028593E+01      0.1846307875E+01
          0                 7           2             4    6     1       0.1788224143E-01       4    6    1         0.9741611699E+00      0.9905411171E+00
          0                 8           2             4    6     1       0.1046663060E-01       4    6    1         0.5704673409E+00      0.5720015813E+00
          0                 9           2             4    6     1       0.6124520415E-02       4    6    1         0.3338714118E+00      0.3340681297E+00
          0                10           2             4    6     1       0.3583363035E-02       4    6    1         0.1953576109E+00      0.1954066583E+00
                                                   Max.-Head-Change                         Max.-Flux-Residual
  Residual-Control   Outer-Iter.   Inner-Iter.     Column Row Layer    Maximum-Head-Change  Column Row Layer    Maximum-Flux-Residual          L2-NORM 
          0                11           2             4    6     1       0.2096483442E-02       4    6    1         0.1142993095E+00      0.1143206604E+00
          0                12           2             4    6     1       0.1226549259E-02       4    6    1         0.6687166272E-01      0.6688311535E-01
          0                13           2             4    6     1       0.7175890155E-03       4    6    1         0.3912324432E-01      0.3912976028E-01
          0                14           2             4    6     1       0.4198222784E-03       4    6    1         0.2288892172E-01      0.2289269634E-01
          0                15           2             4    6     1       0.2456149230E-03       4    6    1         0.1339105864E-01      0.1339325921E-01
          0                16           2             4    6     1       0.1436957256E-03       4    6    1         0.7834371040E-02      0.7835657541E-02
          0                17           1             4    6     1       0.8406841924E-04       4    6    1         0.4583457614E-02      0.4584211422E-02

    ------------------------------------------------
       NWT REQUIRED           17 OUTER ITERATIONS 
       AND A TOTAL OF         33 INNER ITERATIONS.
    ------------------------------------------------

 NO OUTPUT CONTROL FOR STRESS PERIOD   45   TIME STEP    3
 
 SOLVING FOR HEAD 
                                                   Max.-Head-Change                         Max.-Flux-Residual
  Residual-Control   Outer-Iter.   Inner-Iter.     Column Row Layer    Maximum-Head-Change  Column Row Layer    Maximum-Flux-Residual          L2-NORM 
          0                 1           2             4    8     1       0.1353331503E+01       4    8    1         0.7335431621E+02      0.1136188559E+03
          0                 2           2             4    8     1       0.4326121325E+00       4    8    1         0.2372006251E+02      0.3383756650E+02
          0                 3           2             5    7     1       0.2150200680E+00       5    7    1         0.1189109955E+02      0.1327536200E+02
          0                 4           2             5    7     1       0.1239626937E+00       5    7    1         0.6842430713E+01      0.7091381934E+01
          0                 5           2             5    7     1       0.7150811625E-01       5    7    1         0.3945708089E+01      0.4048924502E+01
          0                 6           2             5    7     1       0.4127420124E-01       5    7    1         0.2276253280E+01      0.2337077171E+01
          0                 7           2             5    7     1       0.1110445280E-01       5    7    1         0.6101895007E+00      0.6891844457E+00
          0                 8           2             5    6     1       0.3385064247E-02       5    6    1         0.1847362603E+00      0.2308871071E+00
          0                 9           2             5    6     1       0.1964623935E-02       5    6    1         0.1079542279E+00      0.1143200941E+00
          0                10           2             5    6     1       0.1136036601E-02       5    6    1         0.6258079707E-01      0.6447372482E-01
                                                   Max.-Head-Change                         Max.-Flux-Residual
  Residual-Control   Outer-Iter.   Inner-Iter.     Column Row Layer    Maximum-Head-Change  Column Row Layer    Maximum-Flux-Residual          L2-NORM 
          0                11           2             5    6     1       0.6560164341E-03       5    6    1         0.3617145512E-01      0.3714479367E-01
          0                12           2             5    6     1       0.3786318774E-03       5    6    1         0.2088424281E-01      0.2146032398E-01
          0                13           2             5    6     1       0.2184924138E-03       5    6    1         0.1205300046E-01      0.1240325310E-01
          0                14           2             5    6     1       0.1260731875E-03       5    6    1         0.6955117206E-02      0.7169339954E-02
          0                15           1             5    6     1       0.7274361343E-04       5    6    1         0.4013163581E-02      0.4144414738E-02

    ------------------------------------------------
       NWT REQUIRED           15 OUTER ITERATIONS 
       AND A TOTAL OF         29 INNER ITERATIONS.
    ------------------------------------------------

 NO OUTPUT CONTROL FOR STRESS PERIOD   45   TIME STEP    4
 
 SOLVING FOR HEAD 
                                                   Max.-Head-Change                         Max.-Flux-Residual
  Residual-Control   Outer-Iter.   Inner-Iter.     Column Row Layer    Maximum-Head-Change  Column Row Layer    Maximum-Flux-Residual          L2-NORM 
          0                 1           2             5    8     1       0.1687731856E+01       5    8    1         0.9297795542E+02      0.1470323953E+03
          0                 2           2             5    7     1      -0.1814575616E+01       5    7    1        -0.9911660672E+02      0.2107531908E+03
          0                 3           2             4    6     1      -0.7321976211E+00       4    6    1        -0.4040285786E+02      0.5444141469E+02
          0                 4           2             4    6     1      -0.4398081428E+00       4    6    1        -0.2450693903E+02      0.2643987996E+02
          0                 5           2             4    6     1      -0.2630888747E+00       4    6    1        -0.1471120301E+02      0.1534500226E+02
          0                 6           2             4    6     1      -0.1288736971E+00       4    6    1        -0.7214103368E+01      0.7594309567E+01
          0                 7           2             5    8     1      -0.2390478438E-01       5    8    1        -0.1357085631E+01      0.1458905637E+01
          0                 8           2             5    8     1      -0.1405125298E-01       5    8    1        -0.7977222853E+00      0.7989677318E+00
          0                 9           2             5    8     1      -0.8259135043E-02       5    8    1        -0.4688937263E+00      0.4689928594E+00
          0                10           1             5    8     1      -0.4854540129E-02       5    8    1        -0.2756047790E+00      0.2756153296E+00
                                                   Max.-Head-Change                         Max.-Flux-Residual
  Residual-Control   Outer-Iter.   Inner-Iter.     Column Row Layer    Maximum-Head-Change  Column Row Layer    Maximum-Flux-Residual          L2-NORM 
          0                11           1             5    8     1      -0.2853366328E-02       5    8    1        -0.1619918737E+00      0.1619933093E+00
          0                12           1             5    8     1      -0.1677118052E-02       5    8    1        -0.9521287768E-01      0.9521321911E-01
          0                13           1             5    8     1      -0.9857498067E-03       5    8    1        -0.5596220946E-01      0.5596235135E-01
          0                14           1             5    8     1      -0.5793844705E-03       5    8    1        -0.3289205411E-01      0.3289212936E-01
          0                15           1             5    8     1      -0.3405368607E-03       5    8    1        -0.1933233137E-01      0.1933237422E-01
          0                16           1             5    8     1      -0.2001513627E-03       5    8    1        -0.1136251837E-01      0.1136254328E-01
          0                17           1             5    8     1      -0.1176386754E-03       5    8    1        -0.6678241396E-02      0.6678255977E-02
          0                18           1             5    8     1      -0.6914150888E-04       5    8    1        -0.3925064349E-02      0.3925072904E-02

    ------------------------------------------------
       NWT REQUIRED           18 OUTER ITERATIONS 
       AND A TOTAL OF         27 INNER ITERATIONS.
    ------------------------------------------------

 NO OUTPUT CONTROL FOR STRESS PERIOD   45   TIME STEP    5
 
 SOLVING FOR HEAD 
                                                   Max.-Head-Change                         Max.-Flux-Residual
  Residual-Control   Outer-Iter.   Inner-Iter.     Column Row Layer    Maximum-Head-Change  Column Row Layer    Maximum-Flux-Residual          L2-NORM 
          0                 1           2             4    6     1       0.1198391010E+01       4    6    1         0.6503304183E+02      0.8846524907E+02
          0                 2           2             4    8     1       0.4827201871E+00       4    8    1         0.2609409407E+02      0.3655264347E+02
          0                 3           2             5    7     1       0.1857875816E+00       5    7    1         0.1010278660E+02      0.1411839356E+02
          0                 4           2             5    7     1       0.1030020554E+00       5    7    1         0.5611046728E+01      0.6992020798E+01
          0                 5           2             5    7     1       0.6836415551E-01       5    7    1         0.3708020944E+01      0.4852982191E+01
          0                 6           2             5    7     1       0.4021315207E-01       5    7    1         0.2182519440E+01      0.2832849291E+01
          0                 7           2             5    7     1       0.2365104386E-01       5    7    1         0.1283666352E+01      0.1673334442E+01
          0                 8           2             5    7     1       0.1391288328E-01       5    7    1         0.7549760810E+00      0.9900638265E+00
          0                 9           2             5    7     1       0.8186895889E-02       5    7    1         0.4441351139E+00      0.5860185899E+00
          0                10           2             5    7     1       0.4819177645E-02       5    7    1         0.2613593034E+00      0.3469531020E+00
                                                   Max.-Head-Change                         Max.-Flux-Residual
  Residual-Control   Outer-Iter.   Inner-Iter.     Column Row Layer    Maximum-Head-Change  Column Row Layer    Maximum-Flux-Residual          L2-NORM 
          0                11           2             5    7     1       0.2837797666E-02       5    7    1         0.1538558562E+00      0.2054651277E+00
          0                12           2             5    7     1       0.1671641549E-02       5    7    1         0.9060352954E-01      0.1217059423E+00
          0                13           2             5    7     1       0.9850419637E-03       5    7    1         0.5337391842E-01      0.7210879747E-01
          0                14           2             5    7     1       0.5806469018E-03       5    7    1         0.3145302035E-01      0.4273297485E-01
          0                15           2             5    7     1       0.3423821033E-03       5    7    1         0.1854132711E-01      0.2532980038E-01
          0                16           2             5    7     1       0.2019515922E-03       5    7    1         0.1093352510E-01      0.1501722158E-01
          0                17           2             5    7     1       0.1191561734E-03       5    7    1         0.6449354517E-02      0.8904964017E-02
          0                18           1             5    7     1       0.7032580210E-04       5    7    1         0.3805438555E-02      0.5281475672E-02

    ------------------------------------------------
       NWT REQUIRED           18 OUTER ITERATIONS 
       AND A TOTAL OF         35 INNER ITERATIONS.
    ------------------------------------------------

 NO OUTPUT CONTROL FOR STRESS PERIOD   45   TIME STEP    6
 
 SOLVING FOR HEAD 
                                                   Max.-Head-Change                         Max.-Flux-Residual
  Residual-Control   Outer-Iter.   Inner-Iter.     Column Row Layer    Maximum-Head-Change  Column Row Layer    Maximum-Flux-Residual          L2-NORM 
          0                 1           2             4    7     1       0.1545958734E+01       4    7    1         0.8323457030E+02      0.1417418871E+03
          0                 2           2             5    8     1       0.4116187321E+00       5    8    1         0.2303590165E+02      0.3543794760E+02
          0                 3           2             5    8     1       0.2360490983E+00       5    8    1         0.1305390583E+02      0.1830755181E+02
          0                 4           2             5    8     1       0.1356515039E+00       5    8    1         0.7488183318E+01      0.1052885652E+02
          0                 5           2             5    8     1       0.7802001800E-01       5    8    1         0.4304256862E+01      0.5330556751E+01
          0                 6           2             5    8     1       0.4488794339E-01       5    8    1         0.2475801389E+01      0.2569846068E+01
          0                 7           2             5    8     1       0.2582895814E-01       5    8    1         0.1424456436E+01      0.1432545804E+01
          0                 8           2             5    8     1       0.1486299402E-01       5    8    1         0.8196542351E+00      0.8204146078E+00
          0                 9           2             5    8     1       0.8552927776E-02       5    8    1         0.4716632926E+00      0.4717797422E+00
          0                10           2             5    8     1       0.4921833912E-02       5    8    1         0.2714197789E+00      0.2714613171E+00
                                                   Max.-Head-Change                         Max.-Flux-Residual
  Residual-Control   Outer-Iter.   Inner-Iter.     Column Row Layer    Maximum-Head-Change  Column Row Layer    Maximum-Flux-Residual          L2-NORM 
          0                11           1             5    8     1       0.2832308372E-02       5    8    1         0.1561903051E+00      0.1562124259E+00
          0                12           1             5    8     1       0.1629876371E-02       5    8    1         0.8988099375E-01      0.8989365829E-01
          0                13           1             5    8     1       0.9379268941E-03       5    8    1         0.5172280863E-01      0.5173011084E-01
          0                14           1             5    8     1       0.5397384784E-03       5    8    1         0.2976435545E-01      0.2976856323E-01
          0                15           1             5    8     1       0.3105973811E-03       5    8    1         0.1712816769E-01      0.1713059053E-01
          0                16           1             5    8     1       0.1787360683E-03       5    8    1         0.9856559218E-02      0.9857953744E-02
          0                17           1             5    8     1       0.1028552842E-03       5    8    1         0.5672046206E-02      0.5672848746E-02
          0                18           1             5    8     1       0.5918900100E-04       5    8    1         0.3264030271E-02      0.3264492067E-02

    ------------------------------------------------
       NWT REQUIRED           18 OUTER ITERATIONS 
       AND A TOTAL OF         28 INNER ITERATIONS.
    ------------------------------------------------

 NO OUTPUT CONTROL FOR STRESS PERIOD   45   TIME STEP    7
 
 SOLVING FOR HEAD 
                                                   Max.-Head-Change                         Max.-Flux-Residual
  Residual-Control   Outer-Iter.   Inner-Iter.     Column Row Layer    Maximum-Head-Change  Column Row Layer    Maximum-Flux-Residual          L2-NORM 
          0                 1           2             4    8     1       0.1594110038E+01       4    8    1         0.8518811170E+02      0.1398967578E+03
          0                 2           2             4    6     1      -0.1874622142E+01       4    6    1        -0.9989150464E+02      0.1909297617E+03
          0                 3           2             5    6     1      -0.8235653807E+00       5    6    1        -0.4628500680E+02      0.8245054320E+02
          0                 4           2             5    7     1      -0.3992984422E+00       5    7    1        -0.2244318292E+02      0.3062106637E+02
          0                 5           2             5    7     1      -0.2345857009E+00       5    7    1        -0.1330468682E+02      0.1636364048E+02
          0                 6           2             5    7     1      -0.1376912603E+00       5    7    1        -0.7806945874E+01      0.9633072951E+01
          0                 7           2             5    7     1      -0.8078910488E-01       5    7    1        -0.4582108757E+01      0.5686237488E+01
          0                 8           2             5    7     1      -0.4739548912E-01       5    7    1        -0.2688366188E+01      0.3357030839E+01
          0                 9           2             5    7     1      -0.2780337494E-01       5    7    1        -0.1577100458E+01      0.1982126415E+01
          0                10           2             5    7     1      -0.1630983568E-01       5    7    1        -0.9251464099E+00      0.1170466947E+01
                                                   Max.-Head-Change                         Max.-Flux-Residual
  Residual-Control   Outer-Iter.   Inner-Iter.     Column Row Layer    Maximum-Head-Change  Column Row Layer    Maximum-Flux-Residual          L2-NORM 
          0                11           2             5    7     1      -0.9567517812E-02       5    7    1        -0.5426936637E+00      0.6912653082E+00
          0                12           2             5    7     1      -0.5612405200E-02       5    7    1        -0.3183444892E+00      0.4083111387E+00
          0                13           2             5    7     1      -0.3292302924E-02       5    7    1        -0.1867412490E+00      0.2412126037E+00
          0                14           2             5    7     1      -0.1931310096E-02       5    7    1        -0.1095429277E+00      0.1425186826E+00
          0                15           2             5    7     1      -0.1132937348E-02       5    7    1        -0.6425840547E-01      0.8421841343E-01
          0                16           2             5    7     1      -0.6646018713E-03       5    7    1        -0.3769443495E-01      0.4977440114E-01
          0                17           2             5    7     1      -0.3898693569E-03       5    7    1        -0.2211191379E-01      0.2942178125E-01
          0                18           2             5    7     1      -0.2287065501E-03       5    7    1        -0.1297111518E-01      0.1739385945E-01
          0                19           2             5    7     1      -0.1341652804E-03       5    7    1        -0.7609047011E-02      0.1028459339E-01
          0                20           1             5    7     1      -0.7870526365E-04       5    7    1        -0.4463599971E-02      0.6081945578E-02

    ------------------------------------------------
       NWT REQUIRED           20 OUTER ITERATIONS 
       AND A TOTAL OF         39 INNER ITERATIONS.
    ------------------------------------------------

 NO OUTPUT CONTROL FOR STRESS PERIOD   45   TIME STEP    8
 
 SOLVING FOR HEAD 
                                                   Max.-Head-Change                         Max.-Flux-Residual
  Residual-Control   Outer-Iter.   Inner-Iter.     Column Row Layer    Maximum-Head-Change  Column Row Layer    Maximum-Flux-Residual          L2-NORM 
          0                 1           2             5    7     1       0.1842856730E+01       5    7    1         0.9959715157E+02      0.1712451280E+03
          0                 2           2             5    7     1       0.1084420633E+01       5    7    1         0.5864407199E+02      0.9305553095E+02
          0                 3           2             5    7     1       0.5587204278E+00       5    7    1         0.3011522288E+02      0.4679616560E+02
          0                 4           2             5    6     1       0.2753716474E+00       5    6    1         0.1504496137E+02      0.2117510561E+02
          0                 5           2             5    6     1       0.1675640617E+00       5    6    1         0.9175225613E+01      0.1270083524E+02
          0                 6           2             5    6     1       0.9666208877E-01       5    6    1         0.5307746285E+01      0.7356960134E+01
          0                 7           2             5    6     1       0.5589922522E-01       5    6    1         0.3069898690E+01      0.4302085171E+01
          0                 8           2             5    6     1       0.3233673431E-01       5    6    1         0.1775279435E+01      0.2520334872E+01
          0                 9           2             5    6     1       0.1867654569E-01       5    6    1         0.1026452941E+01      0.1477808876E+01
          0                10           2             5    6     1       0.1079701086E-01       5    6    1         0.5930648844E+00      0.8669338962E+00
                                                   Max.-Head-Change                         Max.-Flux-Residual
  Residual-Control   Outer-Iter.   Inner-Iter.     Column Row Layer    Maximum-Head-Change  Column Row Layer    Maximum-Flux-Residual          L2-NORM 
          0                11           2             5    6     1       0.6246159029E-02       5    6    1         0.3428880551E+00      0.5091322035E+00
          0                12           2             4    7     1       0.3646808657E-02       5    6    1         0.1983842206E+00      0.2993201862E+00
          0                13           2             4    7     1       0.2146822147E-02       4    7    1         0.1161161389E+00      0.1761488052E+00
          0                14           2             4    7     1       0.1264379049E-02       4    7    1         0.6836048591E-01      0.1037617845E+00
          0                15           2             4    7     1       0.7449911311E-03       4    7    1         0.4026382739E-01      0.6117645212E-01
          0                16           2             4    7     1       0.4391488145E-03       4    7    1         0.2372557330E-01      0.3609901493E-01
          0                17           2             4    7     1       0.2589722768E-03       4    7    1         0.1398634746E-01      0.2131798176E-01
          0                18           2             4    7     1       0.1527812071E-03       4    7    1         0.8248443310E-02      0.1259831855E-01
          0                19           1             4    7     1       0.9016871500E-04       4    7    1         0.4866468530E-02      0.7450265640E-02

    ------------------------------------------------
       NWT REQUIRED           19 OUTER ITERATIONS 
       AND A TOTAL OF         37 INNER ITERATIONS.
    ------------------------------------------------

 NO OUTPUT CONTROL FOR STRESS PERIOD   45   TIME STEP    9
 
 SOLVING FOR HEAD 
                                                   Max.-Head-Change                         Max.-Flux-Residual
  Residual-Control   Outer-Iter.   Inner-Iter.     Column Row Layer    Maximum-Head-Change  Column Row Layer    Maximum-Flux-Residual          L2-NORM 
          0                 1           2             4    6     1       0.1811732235E+01       4    6    1         0.9804398967E+02      0.1066880831E+03
          0                 2           2             4    6     1       0.8259457462E+00       4    6    1         0.4527828901E+02      0.5081496238E+02
          0                 3           2             4    6     1       0.2266136776E+00       4    6    1         0.1238786850E+02      0.1265387434E+02
          0                 4           2             4    6     1       0.4888005606E-01       4    6    1         0.2671191896E+01      0.2701588090E+01
          0                 5           2             4    6     1       0.1054956428E-01       4    6    1         0.5762883402E+00      0.5812739232E+00
          0                 6           2             4    6     1       0.2278200612E-02       4    6    1         0.1243960290E+00      0.1252593154E+00
          0                 7           2             4    6     1       0.4922891809E-03       4    6    1         0.2686701681E-01      0.2702108720E-01
          0                 8           1             4    6     1       0.1064510410E-03       4    6    1         0.5806294679E-02      0.5837025412E-02
          0                 9           1             4    6     1       0.2303708667E-04       4    6    1         0.1255703751E-02      0.1263429293E-02

    ------------------------------------------------
       NWT REQUIRED            9 OUTER ITERATIONS 
       AND A TOTAL OF         16 INNER ITERATIONS.
    ------------------------------------------------

 NO OUTPUT CONTROL FOR STRESS PERIOD   45   TIME STEP   10
 
 SOLVING FOR HEAD 
                                                   Max.-Head-Change                         Max.-Flux-Residual
  Residual-Control   Outer-Iter.   Inner-Iter.     Column Row Layer    Maximum-Head-Change  Column Row Layer    Maximum-Flux-Residual          L2-NORM 
          0                 1           2             4    6     1      -0.5890402501E-01       4    6    1        -0.3244926499E+01      0.5992147642E+01
          0                 2           2             5    7     1      -0.1895506754E+01       5    8    1        -0.1003143223E+03      0.2450723065E+03
          0                 3           2             5    7     1       0.1841679130E+00       5    7    1         0.1008957878E+02      0.2205116087E+02
          0                 4           2             5    7     1      -0.1252999690E-01       5    7    1        -0.7124674439E+00      0.1453340110E+01
          0                 5           2             4    6     1       0.4986706029E-03       4    8    1         0.2913543815E-01      0.5762047193E-01
          0                 6           1             4    6     1      -0.6148843378E-05       4    8    1        -0.3721422656E-03      0.7517542870E-03

    ------------------------------------------------
       NWT REQUIRED            6 OUTER ITERATIONS 
       AND A TOTAL OF         11 INNER ITERATIONS.
    ------------------------------------------------

 NO OUTPUT CONTROL FOR STRESS PERIOD   45   TIME STEP   11
 
 SOLVING FOR HEAD 
                                                   Max.-Head-Change                         Max.-Flux-Residual
  Residual-Control   Outer-Iter.   Inner-Iter.     Column Row Layer    Maximum-Head-Change  Column Row Layer    Maximum-Flux-Residual          L2-NORM 
          0                 1           2             5    8     1       0.1074016779E+00       5    8    1         0.5918729358E+01      0.6933455329E+01
          0                 2           2             5    8     1       0.8075103969E-02       5    8    1         0.4457178176E+00      0.6122740688E+00
          0                 3           2             4    6     1      -0.1372518117E-02       4    6    1        -0.7743127886E-01      0.1522780244E+00
          0                 4           2             4    7     1      -0.5836063224E-02       4    6    1        -0.3144228405E+00      0.7641708885E+00
          0                 5           2             4    7     1       0.8047922091E-02       5    6    1         0.4442239084E+00      0.1046686183E+01
          0                 6           2             5    8     1       0.1870478573E-02       5    8    1         0.1094163770E+00      0.1156652509E+00
          0                 7           1             5    8     1       0.5982114084E-03       5    8    1         0.3481856071E-01      0.3482342479E-01
          0                 8           1             5    8     1       0.1913144377E-03       5    8    1         0.1113686572E-01      0.1113697183E-01
          0                 9           1             5    8     1       0.6118316372E-04       5    8    1         0.3561606264E-02      0.3561635359E-02

    ------------------------------------------------
       NWT REQUIRED            9 OUTER ITERATIONS 
       AND A TOTAL OF         15 INNER ITERATIONS.
    ------------------------------------------------

 NO OUTPUT CONTROL FOR STRESS PERIOD   45   TIME STEP   12
 
 SOLVING FOR HEAD 
                                                   Max.-Head-Change                         Max.-Flux-Residual
  Residual-Control   Outer-Iter.   Inner-Iter.     Column Row Layer    Maximum-Head-Change  Column Row Layer    Maximum-Flux-Residual          L2-NORM 
          0                 1           2             5    8     1       0.1256454746E+00       5    8    1         0.6917650214E+01      0.7723583933E+01
          0                 2           2             4    7     1      -0.2320874545E+00       5    6    1        -0.1251563732E+02      0.2973590952E+02
          0                 3           2             5    8     1      -0.5727910706E-01       5    8    1        -0.3268966186E+01      0.3904242276E+01
          0                 4           2             5    8     1       0.3017865544E-02       5    8    1         0.1767008143E+00      0.2097070877E+00
          0                 5           1             5    8     1      -0.1201120880E-03       5    8    1        -0.7196673512E-02      0.8100548568E-02
          0                 6           1             5    8     1       0.1482133773E-05       5    8    1         0.9065182689E-04      0.1037335506E-03

    ------------------------------------------------
       NWT REQUIRED            6 OUTER ITERATIONS 
       AND A TOTAL OF         10 INNER ITERATIONS.
    ------------------------------------------------

 NO OUTPUT CONTROL FOR STRESS PERIOD   45   TIME STEP   13
 
 SOLVING FOR HEAD 
                                                   Max.-Head-Change                         Max.-Flux-Residual
  Residual-Control   Outer-Iter.   Inner-Iter.     Column Row Layer    Maximum-Head-Change  Column Row Layer    Maximum-Flux-Residual          L2-NORM 
          0                 1           2             5    8     1       0.4448911100E+00       5    8    1         0.2450119782E+02      0.2477418436E+02
          0                 2           2             4    6     1      -0.1886984133E+01       5    6    1        -0.1001667181E+03      0.2397198270E+03
          0                 3           2             5    8     1      -0.5156710007E+00       5    8    1        -0.2949685738E+02      0.3416186070E+02
          0                 4           2             5    8     1       0.3433751188E-01       5    8    1         0.2006444705E+01      0.2200926015E+01
          0                 5           2             5    8     1      -0.1366642022E-02       5    8    1        -0.8184711177E-01      0.8738654774E-01
          0                 6           1             5    8     1       0.1686379193E-04       5    8    1         0.1033180749E-02      0.1121291950E-02

    ------------------------------------------------
       NWT REQUIRED            6 OUTER ITERATIONS 
       AND A TOTAL OF         11 INNER ITERATIONS.
    ------------------------------------------------

 NO OUTPUT CONTROL FOR STRESS PERIOD   45   TIME STEP   14
 
 SOLVING FOR HEAD 
                                                   Max.-Head-Change                         Max.-Flux-Residual
  Residual-Control   Outer-Iter.   Inner-Iter.     Column Row Layer    Maximum-Head-Change  Column Row Layer    Maximum-Flux-Residual          L2-NORM 
          0                 1           2             5    8     1       0.1239454629E+01       5    8    1         0.6826475960E+02      0.6875181862E+02
          0                 2           2             5    8     1       0.3444634293E+00       5    8    1         0.1902589115E+02      0.1904434533E+02
          0                 3           2             5    8     1       0.9522684975E-01       5    8    1         0.5261232961E+01      0.5262479001E+01
          0                 4           2             5    8     1       0.2084002976E-01       5    8    1         0.1159816065E+01      0.1355851611E+01
          0                 5           2             5    8     1       0.1372631624E-01       5    8    1         0.7443406881E+00      0.1239465700E+01
          0                 6           2             5    8     1       0.3849879475E-02       5    8    1         0.2126486939E+00      0.2160156136E+00
          0                 7           1             5    8     1       0.1079792123E-02       5    8    1         0.5958570872E-01      0.5959161517E-01
          0                 8           1             5    8     1       0.3028540362E-03       5    8    1         0.1671308176E-01      0.1671381585E-01
          0                 9           1             5    8     1       0.8494281083E-04       5    8    1         0.4687607024E-02      0.4687807205E-02

    ------------------------------------------------
       NWT REQUIRED            9 OUTER ITERATIONS 
       AND A TOTAL OF         15 INNER ITERATIONS.
    ------------------------------------------------

 NO OUTPUT CONTROL FOR STRESS PERIOD   45   TIME STEP   15
 
 SOLVING FOR HEAD 
                                                   Max.-Head-Change                         Max.-Flux-Residual
  Residual-Control   Outer-Iter.   Inner-Iter.     Column Row Layer    Maximum-Head-Change  Column Row Layer    Maximum-Flux-Residual          L2-NORM 
          0                 1           2             4    8     1       0.8125329747E+00       4    8    1         0.4390776649E+02      0.7034868607E+02
          0                 2           2             4    6     1      -0.2214873380E+00       4    6    1        -0.1245024224E+02      0.1726258509E+02
          0                 3           2             5    8     1      -0.4368122631E-01       5    8    1        -0.2476871464E+01      0.3272487511E+01
          0                 4           2             4    7     1      -0.1700867399E-01       4    7    1        -0.9518336299E+00      0.1018440050E+01
          0                 5           2             4    7     1      -0.1012132539E-01       4    7    1        -0.5669148650E+00      0.5739710166E+00
          0                 6           2             4    7     1      -0.6021573714E-02       4    7    1        -0.3373275264E+00      0.3383688881E+00
          0                 7           2             4    7     1      -0.3582120802E-02       4    7    1        -0.2006819564E+00      0.2008804438E+00
          0                 8           1             4    7     1      -0.2130839599E-02       4    7    1        -0.1193789167E+00      0.1194397667E+00
          0                 9           1             4    7     1      -0.1267510110E-02       4    7    1        -0.7101164532E-01      0.7103986345E-01
          0                10           1             4    7     1      -0.7539567630E-03       4    7    1        -0.4223987968E-01      0.4225551037E-01
                                                   Max.-Head-Change                         Max.-Flux-Residual
  Residual-Control   Outer-Iter.   Inner-Iter.     Column Row Layer    Maximum-Head-Change  Column Row Layer    Maximum-Flux-Residual          L2-NORM 
          0                11           1             4    7     1      -0.4484742814E-03       4    7    1        -0.2512525878E-01      0.2513438201E-01
          0                12           1             4    7     1      -0.2667629148E-03       4    7    1        -0.1494495782E-01      0.1495035743E-01
          0                13           1             4    7     1      -0.1586757116E-03       4    7    1        -0.8889467186E-02      0.8892674888E-02
          0                14           1             4    7     1      -0.9438275538E-04       4    7    1        -0.5287542712E-02      0.5289450299E-02

    ------------------------------------------------
       NWT REQUIRED           14 OUTER ITERATIONS 
       AND A TOTAL OF         21 INNER ITERATIONS.
    ------------------------------------------------

 NO OUTPUT CONTROL FOR STRESS PERIOD   45   TIME STEP   16
 
 SOLVING FOR HEAD 
                                                   Max.-Head-Change                         Max.-Flux-Residual
  Residual-Control   Outer-Iter.   Inner-Iter.     Column Row Layer    Maximum-Head-Change  Column Row Layer    Maximum-Flux-Residual          L2-NORM 
          0                 1           2             5    8     1       0.3985103025E+00       5    8    1         0.2191948334E+02      0.3326207749E+02
          0                 2           2             5    7     1      -0.1815816336E+01       5    6    1        -0.9885276697E+02      0.2344312112E+03
          0                 3           2             5    8     1      -0.4664317816E+00       5    8    1        -0.2659364353E+02      0.3454128909E+02
          0                 4           2             5    8     1       0.3175941952E-01       5    8    1         0.1858105559E+01      0.2386142582E+01
          0                 5           2             5    8     1      -0.1264072585E-02       5    8    1        -0.7587103368E-01      0.9686412559E-01
          0                 6           1             5    8     1       0.1559807450E-04       5    8    1         0.9586656256E-03      0.1237138225E-02

    ------------------------------------------------
       NWT REQUIRED            6 OUTER ITERATIONS 
       AND A TOTAL OF         11 INNER ITERATIONS.
    ------------------------------------------------

 NO OUTPUT CONTROL FOR STRESS PERIOD   45   TIME STEP   17
 
 SOLVING FOR HEAD 
                                                   Max.-Head-Change                         Max.-Flux-Residual
  Residual-Control   Outer-Iter.   Inner-Iter.     Column Row Layer    Maximum-Head-Change  Column Row Layer    Maximum-Flux-Residual          L2-NORM 
          0                 1           2             5    8     1       0.1192180791E+01       5    8    1         0.6579398463E+02      0.6667106637E+02
          0                 2           2             5    8     1       0.3338993478E+00       5    8    1         0.1843548401E+02      0.1847148838E+02
          0                 3           2             5    8     1       0.9234036968E-01       5    8    1         0.5098328060E+01      0.5099174828E+01
          0                 4           2             5    8     1       0.1996942941E-01       5    8    1         0.1111738745E+01      0.1314607939E+01
          0                 5           2             5    8     1       0.1348157715E-01       5    8    1         0.7311205557E+00      0.1225559488E+01
          0                 6           2             5    8     1       0.3781072309E-02       5    8    1         0.2084754981E+00      0.2113629984E+00
          0                 7           1             5    8     1       0.1060447525E-02       5    8    1         0.5852042225E-01      0.5852612138E-01
          0                 8           1             5    8     1       0.2974154655E-03       5    8    1         0.1641347985E-01      0.1641420036E-01
          0                 9           1             5    8     1       0.8341381074E-04       5    8    1         0.4603375011E-02      0.4603572035E-02

    ------------------------------------------------
       NWT REQUIRED            9 OUTER ITERATIONS 
       AND A TOTAL OF         15 INNER ITERATIONS.
    ------------------------------------------------

 NO OUTPUT CONTROL FOR STRESS PERIOD   45   TIME STEP   18
 
 SOLVING FOR HEAD 
                                                   Max.-Head-Change                         Max.-Flux-Residual
  Residual-Control   Outer-Iter.   Inner-Iter.     Column Row Layer    Maximum-Head-Change  Column Row Layer    Maximum-Flux-Residual          L2-NORM 
          0                 1           2             4    8     1       0.1256426953E+01       5    7    1         0.6791454317E+02      0.1129915412E+03
          0                 2           2             5    6     1       0.2693332707E+00       5    6    1         0.1494404557E+02      0.2692218938E+02
          0                 3           2             5    6     1       0.1557068670E+00       5    6    1         0.8543777939E+01      0.1127526643E+02
          0                 4           2             5    6     1       0.8981434310E-01       5    6    1         0.4944703492E+01      0.6247992729E+01
          0                 5           2             4    7     1       0.4004259363E-01       4    7    1         0.2175830664E+01      0.3091583698E+01
          0                 6           2             4    7     1       0.2341426634E-01       4    7    1         0.1273995701E+01      0.1417951329E+01
          0                 7           2             4    7     1       0.1367814828E-01       4    7    1         0.7447880334E+00      0.7658414981E+00
          0                 8           2             4    7     1       0.7986425081E-02       4    7    1         0.4350389936E+00      0.4381996349E+00
          0                 9           2             4    7     1       0.4661862543E-02       4    7    1         0.2539952931E+00      0.2545408729E+00
          0                10           1             4    7     1       0.2720847307E-02       4    7    1         0.1482579468E+00      0.1483863684E+00
                                                   Max.-Head-Change                         Max.-Flux-Residual
  Residual-Control   Outer-Iter.   Inner-Iter.     Column Row Layer    Maximum-Head-Change  Column Row Layer    Maximum-Flux-Residual          L2-NORM 
          0                11           1             4    7     1       0.1587874647E-02       4    7    1         0.8652765028E-01      0.8657294054E-01
          0                12           1             4    7     1       0.9266404543E-03       4    7    1         0.5049668646E-01      0.5051795638E-01
          0                13           1             4    7     1       0.5407512054E-03       4    7    1         0.2946834895E-01      0.2947972531E-01
          0                14           1             4    7     1       0.3155580046E-03       4    7    1         0.1719653502E-01      0.1720293400E-01
          0                15           1             4    7     1       0.1841444267E-03       4    7    1         0.1003510891E-01      0.1003878088E-01
          0                16           1             4    7     1       0.1074575088E-03       4    7    1         0.5856001525E-02      0.5858127272E-02
          0                17           1             4    7     1       0.6270675880E-04       4    7    1         0.3417269455E-02      0.3418504989E-02

    ------------------------------------------------
       NWT REQUIRED           17 OUTER ITERATIONS 
       AND A TOTAL OF         26 INNER ITERATIONS.
    ------------------------------------------------

 NO OUTPUT CONTROL FOR STRESS PERIOD   45   TIME STEP   19
 
 SOLVING FOR HEAD 
                                                   Max.-Head-Change                         Max.-Flux-Residual
  Residual-Control   Outer-Iter.   Inner-Iter.     Column Row Layer    Maximum-Head-Change  Column Row Layer    Maximum-Flux-Residual          L2-NORM 
          0                 1           2             4    6     1       0.1499024571E+01       4    6    1         0.8141788104E+02      0.8751606132E+02
          0                 2           2             5    7     1      -0.1815983711E+01       5    6    1        -0.9884441166E+02      0.2270406447E+03
          0                 3           2             4    7     1      -0.4650171412E+00       4    7    1        -0.2582768752E+02      0.4309297773E+02
          0                 4           2             4    6     1      -0.1476706696E+00       4    6    1        -0.8301820163E+01      0.8656847398E+01
          0                 5           2             4    6     1      -0.8777851238E-01       4    6    1        -0.4920179276E+01      0.4921241293E+01
          0                 6           2             4    6     1      -0.5217714198E-01       4    6    1        -0.2925179771E+01      0.2925185269E+01
          0                 7           2             4    6     1      -0.3101491741E-01       4    6    1        -0.1738742014E+01      0.1738745800E+01
          0                 8           2             4    6     1      -0.1843566480E-01       4    6    1        -0.1033518578E+01      0.1033520823E+01
          0                 9           2             4    6     1      -0.1095833481E-01       4    6    1        -0.6143266707E+00      0.6143280054E+00
          0                10           2             4    6     1      -0.6513700271E-02       4    6    1        -0.3651557560E+00      0.3651565495E+00
                                                   Max.-Head-Change                         Max.-Flux-Residual
  Residual-Control   Outer-Iter.   Inner-Iter.     Column Row Layer    Maximum-Head-Change  Column Row Layer    Maximum-Flux-Residual          L2-NORM 
          0                11           2             4    6     1      -0.3871759144E-02       4    6    1        -0.2170473240E+00      0.2170477957E+00
          0                12           2             4    6     1      -0.2301368691E-02       4    6    1        -0.1290114079E+00      0.1290116882E+00
          0                13           2             4    6     1      -0.1367922028E-02       4    6    1        -0.7668300457E-01      0.7668317120E-01
          0                14           2             4    6     1      -0.8130808699E-03       4    6    1        -0.4557927528E-01      0.4557937431E-01
          0                15           2             4    6     1      -0.4832850817E-03       4    6    1        -0.2709149521E-01      0.2709155407E-01
          0                16           2             4    6     1      -0.2872567717E-03       4    6    1        -0.1610259185E-01      0.1610262684E-01
          0                17           2             4    6     1      -0.1707396540E-03       4    6    1        -0.9570967417E-02      0.9570988215E-02
          0                18           1             4    6     1      -0.1014835736E-03       4    6    1        -0.5688701267E-02      0.5688713626E-02
          0                19           1             4    6     1      -0.6031902889E-04       4    6    1        -0.3381175039E-02      0.3381182409E-02

    ------------------------------------------------
       NWT REQUIRED           19 OUTER ITERATIONS 
       AND A TOTAL OF         36 INNER ITERATIONS.
    ------------------------------------------------

 NO OUTPUT CONTROL FOR STRESS PERIOD   45   TIME STEP   20
 
 SOLVING FOR HEAD 
                                                   Max.-Head-Change                         Max.-Flux-Residual
  Residual-Control   Outer-Iter.   Inner-Iter.     Column Row Layer    Maximum-Head-Change  Column Row Layer    Maximum-Flux-Residual          L2-NORM 
          0                 1           2             5    8     1       0.1192942834E+01       5    8    1         0.6584041368E+02      0.6795102540E+02
          0                 2           2             5    8     1       0.3341402085E+00       5    8    1         0.1844805194E+02      0.1887988298E+02
          0                 3           2             5    8     1       0.9240950335E-01       5    8    1         0.5102113308E+01      0.5206182197E+01
          0                 4           2             5    8     1       0.1998923760E-01       5    8    1         0.1112813479E+01      0.1277312240E+01
          0                 5           2             5    8     1       0.1348723020E-01       5    8    1         0.7314283910E+00      0.1214225060E+01
          0                 6           2             5    8     1       0.3782738458E-02       5    8    1         0.2085638409E+00      0.2518161533E+00
          0                 7           2             5    8     1       0.1060938628E-02       5    8    1         0.5854641103E-01      0.7350705694E-01
          0                 8           2             5    8     1       0.2975602615E-03       5    8    1         0.1642113583E-01      0.2182622463E-01
          0                 9           1             5    8     1       0.8345652395E-04       4    6    1         0.4650683223E-02      0.6545445351E-02

    ------------------------------------------------
       NWT REQUIRED            9 OUTER ITERATIONS 
       AND A TOTAL OF         17 INNER ITERATIONS.
    ------------------------------------------------

 NO OUTPUT CONTROL FOR STRESS PERIOD   45   TIME STEP   21
 
 SOLVING FOR HEAD 
                                                   Max.-Head-Change                         Max.-Flux-Residual
  Residual-Control   Outer-Iter.   Inner-Iter.     Column Row Layer    Maximum-Head-Change  Column Row Layer    Maximum-Flux-Residual          L2-NORM 
          0                 1           2             4    8     1       0.1252079289E+01       5    7    1         0.6751660720E+02      0.1119159793E+03
          0                 2           2             5    6     1       0.2393304092E+00       5    6    1         0.1324928024E+02      0.2511829342E+02
          0                 3           2             5    6     1       0.1374019256E+00       5    6    1         0.7594508574E+01      0.1118323447E+02
          0                 4           2             5    6     1       0.7913826551E-01       5    6    1         0.4360096264E+01      0.5944356652E+01
          0                 5           2             5    6     1       0.4561203630E-01       5    6    1         0.2512015109E+01      0.3422159042E+01
          0                 6           2             5    6     1       0.2627376542E-01       5    6    1         0.1447784305E+01      0.1983773865E+01
          0                 7           2             5    6     1       0.1513027384E-01       5    6    1         0.8338956415E+00      0.1150863811E+01
          0                 8           2             5    6     1       0.8711980637E-02       5    6    1         0.4801995648E+00      0.6678195313E+00
          0                 9           2             5    6     1       0.5016072489E-02       5    6    1         0.2764936514E+00      0.3875648652E+00
          0                10           2             4    7     1       0.2920467601E-02       5    6    1         0.1591949341E+00      0.2249453437E+00
                                                   Max.-Head-Change                         Max.-Flux-Residual
  Residual-Control   Outer-Iter.   Inner-Iter.     Column Row Layer    Maximum-Head-Change  Column Row Layer    Maximum-Flux-Residual          L2-NORM 
          0                11           2             4    7     1       0.1709018122E-02       4    7    1         0.9291074396E-01      0.1305751104E+00
          0                12           2             4    7     1       0.1000064162E-02       4    7    1         0.5436979020E-01      0.7580491583E-01
          0                13           2             4    7     1       0.5851936795E-03       4    7    1         0.3181538849E-01      0.4401385659E-01
          0                14           2             4    7     1       0.3424236682E-03       4    7    1         0.1861691983E-01      0.2555860926E-01
          0                15           2             4    7     1       0.2003647156E-03       4    7    1         0.1089359037E-01      0.1484365737E-01
          0                16           1             4    7     1       0.1172391126E-03       4    7    1         0.6374229425E-02      0.8621849457E-02
          0                17           1             4    7     1       0.6859902558E-04       4    7    1         0.3729737025E-02      0.5008590305E-02

    ------------------------------------------------
       NWT REQUIRED           17 OUTER ITERATIONS 
       AND A TOTAL OF         32 INNER ITERATIONS.
    ------------------------------------------------

 NO OUTPUT CONTROL FOR STRESS PERIOD   45   TIME STEP   22
 
 SOLVING FOR HEAD 
                                                   Max.-Head-Change                         Max.-Flux-Residual
  Residual-Control   Outer-Iter.   Inner-Iter.     Column Row Layer    Maximum-Head-Change  Column Row Layer    Maximum-Flux-Residual          L2-NORM 
          0                 1           2             4    6     1       0.1799530789E+01       4    6    1         0.9767884278E+02      0.1043414536E+03
          0                 2           2             5    7     1      -0.1815642720E+01       4    8    1        -0.9874795797E+02      0.2240420902E+03
          0                 3           2             4    7     1      -0.5227968887E+00       4    7    1        -0.2909707830E+02      0.4217565211E+02
          0                 4           2             4    6     1      -0.1375737200E+00       4    6    1        -0.7657622359E+01      0.8718988594E+01
          0                 5           2             4    6     1      -0.8177676044E-01       4    6    1        -0.4588550512E+01      0.4596880642E+01
          0                 6           2             4    6     1      -0.4860938337E-01       4    6    1        -0.2725030805E+01      0.2725065170E+01
          0                 7           2             4    6     1      -0.2889404721E-01       4    6    1        -0.1619851254E+01      0.1619854616E+01
          0                 8           2             4    6     1      -0.1717490877E-01       4    6    1        -0.9628435856E+00      0.9628456792E+00
          0                 9           2             4    6     1      -0.1020887916E-01       4    6    1        -0.5723144866E+00      0.5723157300E+00
          0                10           2             4    6     1      -0.6068189243E-02       4    6    1        -0.3401820484E+00      0.3401827876E+00
                                                   Max.-Head-Change                         Max.-Flux-Residual
  Residual-Control   Outer-Iter.   Inner-Iter.     Column Row Layer    Maximum-Head-Change  Column Row Layer    Maximum-Flux-Residual          L2-NORM 
          0                11           2             4    6     1      -0.3606928367E-02       4    6    1        -0.2022020390E+00      0.2022024784E+00
          0                12           2             4    6     1      -0.2143942921E-02       4    6    1        -0.1201868775E+00      0.1201871387E+00
          0                13           2             4    6     1      -0.1274342574E-02       4    6    1        -0.7143744191E-01      0.7143759712E-01
          0                14           2             4    6     1      -0.7574542753E-03       4    6    1        -0.4246117629E-01      0.4246126854E-01
          0                15           2             4    6     1      -0.4502190787E-03       4    6    1        -0.2523802754E-01      0.2523808257E-01
          0                16           2             4    6     1      -0.2676015398E-03       4    6    1        -0.1500085622E-01      0.1500088898E-01
          0                17           2             4    6     1      -0.1590561833E-03       4    6    1        -0.8916079422E-02      0.8916098814E-02
          0                18           1             4    6     1      -0.9453872451E-04       4    6    1        -0.5299428604E-02      0.5299440119E-02

    ------------------------------------------------
       NWT REQUIRED           18 OUTER ITERATIONS 
       AND A TOTAL OF         35 INNER ITERATIONS.
    ------------------------------------------------

 NO OUTPUT CONTROL FOR STRESS PERIOD   45   TIME STEP   23
 
 SOLVING FOR HEAD 
                                                   Max.-Head-Change                         Max.-Flux-Residual
  Residual-Control   Outer-Iter.   Inner-Iter.     Column Row Layer    Maximum-Head-Change  Column Row Layer    Maximum-Flux-Residual          L2-NORM 
          0                 1           2             5    8     1       0.1161034068E+01       5    8    1         0.6407974907E+02      0.6607434845E+02
          0                 2           2             5    8     1       0.3571215516E+00       5    8    1         0.1971603428E+02      0.2006413131E+02
          0                 3           2             5    8     1       0.9885562989E-01       5    8    1         0.5457848235E+01      0.5539020903E+01
          0                 4           2             5    8     1       0.2179746052E-01       5    8    1         0.1212598193E+01      0.1365832647E+01
          0                 5           2             5    8     1       0.1399446661E-01       5    8    1         0.7594185518E+00      0.1228784833E+01
          0                 6           2             5    8     1       0.3925052127E-02       5    8    1         0.2164156409E+00      0.2570031623E+00
          0                 7           2             5    8     1       0.1100867095E-02       5    8    1         0.6074934942E-01      0.7478962345E-01
          0                 8           2             5    8     1       0.3087628448E-03       5    8    1         0.1703920739E-01      0.2212388754E-01
          0                 9           1             5    8     1       0.8659958565E-04       5    8    1         0.4779041310E-02      0.6608716205E-02

    ------------------------------------------------
       NWT REQUIRED            9 OUTER ITERATIONS 
       AND A TOTAL OF         17 INNER ITERATIONS.
    ------------------------------------------------

 NO OUTPUT CONTROL FOR STRESS PERIOD   45   TIME STEP   24
 
 SOLVING FOR HEAD 
                                                   Max.-Head-Change                         Max.-Flux-Residual
  Residual-Control   Outer-Iter.   Inner-Iter.     Column Row Layer    Maximum-Head-Change  Column Row Layer    Maximum-Flux-Residual          L2-NORM 
          0                 1           2             4    8     1       0.1251606311E+01       4    8    1         0.6739629733E+02      0.1112950350E+03
          0                 2           2             5    6     1       0.2336039810E+00       5    6    1         0.1292136581E+02      0.2573162808E+02
          0                 3           2             5    6     1       0.1341979033E+00       5    6    1         0.7414076039E+01      0.1148067758E+02
          0                 4           2             4    7     1       0.7877242319E-01       4    7    1         0.4267476680E+01      0.6105115210E+01
          0                 5           2             4    7     1       0.4620376161E-01       4    7    1         0.2507539134E+01      0.3525785013E+01
          0                 6           2             4    7     1       0.2706743388E-01       4    7    1         0.1470332247E+01      0.2045419889E+01
          0                 7           2             4    7     1       0.1584735019E-01       4    7    1         0.8612277661E+00      0.1187693616E+01
          0                 8           2             4    7     1       0.9275505651E-02       4    7    1         0.5041907761E+00      0.6898029132E+00
          0                 9           2             4    7     1       0.5428169695E-02       4    7    1         0.2950935165E+00      0.4006755848E+00
          0                10           2             4    7     1       0.3176397505E-02       4    7    1         0.1726900503E+00      0.2327583071E+00
                                                   Max.-Head-Change                         Max.-Flux-Residual
  Residual-Control   Outer-Iter.   Inner-Iter.     Column Row Layer    Maximum-Head-Change  Column Row Layer    Maximum-Flux-Residual          L2-NORM 
          0                11           2             4    7     1       0.1858646445E-02       4    7    1         0.1010518898E+00      0.1352277129E+00
          0                12           2             4    7     1       0.1087543126E-02       4    7    1         0.5912946480E-01      0.7857371667E-01
          0                13           2             4    7     1       0.6363374910E-03       4    7    1         0.3459809061E-01      0.4566058241E-01
          0                14           2             4    7     1       0.3723245087E-03       4    7    1         0.2024380211E-01      0.2653742051E-01
          0                15           2             4    7     1       0.2178460716E-03       4    7    1         0.1184473496E-01      0.1542513990E-01
          0                16           1             4    7     1       0.1274595277E-03       4    7    1         0.6930310925E-02      0.8967108477E-02
          0                17           1             4    7     1       0.7457438024E-04       4    7    1         0.4054848307E-02      0.5213486370E-02

    ------------------------------------------------
       NWT REQUIRED           17 OUTER ITERATIONS 
       AND A TOTAL OF         32 INNER ITERATIONS.
    ------------------------------------------------

 NO OUTPUT CONTROL FOR STRESS PERIOD   45   TIME STEP   25
 
 SOLVING FOR HEAD 
                                                   Max.-Head-Change                         Max.-Flux-Residual
  Residual-Control   Outer-Iter.   Inner-Iter.     Column Row Layer    Maximum-Head-Change  Column Row Layer    Maximum-Flux-Residual          L2-NORM 
          0                 1           2             4    6     1       0.1784705365E+01       4    6    1         0.9672788468E+02      0.1050769202E+03
          0                 2           2             5    7     1      -0.1814751010E+01       4    8    1        -0.9873135242E+02      0.2233542756E+03
          0                 3           2             4    7     1      -0.5147397610E+00       4    7    1        -0.2864343837E+02      0.4059879760E+02
          0                 4           2             4    7     1      -0.1592875002E+00       4    7    1        -0.8808413263E+01      0.1205682770E+02
          0                 5           2             4    6     1      -0.8815100695E-01       4    6    1        -0.4916491090E+01      0.5242593679E+01
          0                 6           2             4    6     1      -0.5239857878E-01       4    6    1        -0.2939415807E+01      0.2942182716E+01
          0                 7           2             4    6     1      -0.3114661051E-01       4    6    1        -0.1746064498E+01      0.1746078533E+01
          0                 8           2             4    6     1      -0.1851398280E-01       4    6    1        -0.1037907965E+01      0.1037910153E+01
          0                 9           2             4    6     1      -0.1100491040E-01       4    6    1        -0.6169365597E+00      0.6169379018E+00
          0                10           2             4    6     1      -0.6541398545E-02       4    6    1        -0.3667078329E+00      0.3667086303E+00
                                                   Max.-Head-Change                         Max.-Flux-Residual
  Residual-Control   Outer-Iter.   Inner-Iter.     Column Row Layer    Maximum-Head-Change  Column Row Layer    Maximum-Flux-Residual          L2-NORM 
          0                11           2             4    6     1      -0.3888231072E-02       4    6    1        -0.2179703216E+00      0.2179707955E+00
          0                12           2             4    6     1      -0.2311164345E-02       4    6    1        -0.1295602979E+00      0.1295605796E+00
          0                13           2             4    6     1      -0.1373747347E-02       4    6    1        -0.7700941757E-01      0.7700958501E-01
          0                14           2             4    6     1      -0.8165450710E-03       4    6    1        -0.4577338479E-01      0.4577348430E-01
          0                15           2             4    6     1      -0.4853451596E-03       4    6    1        -0.2720692645E-01      0.2720698560E-01
          0                16           2             4    6     1      -0.2884818430E-03       4    6    1        -0.1617123498E-01      0.1617127014E-01
          0                17           2             4    6     1      -0.1714681652E-03       4    6    1        -0.9611786947E-02      0.9611807841E-02
          0                18           1             4    6     1      -0.1019167936E-03       4    6    1        -0.5712974971E-02      0.5712987394E-02
          0                19           1             4    6     1      -0.6057664758E-04       4    6    1        -0.3395609516E-02      0.3395616916E-02

    ------------------------------------------------
       NWT REQUIRED           19 OUTER ITERATIONS 
       AND A TOTAL OF         36 INNER ITERATIONS.
    ------------------------------------------------

 NO OUTPUT CONTROL FOR STRESS PERIOD   45   TIME STEP   26
 
 SOLVING FOR HEAD 
                                                   Max.-Head-Change                         Max.-Flux-Residual
  Residual-Control   Outer-Iter.   Inner-Iter.     Column Row Layer    Maximum-Head-Change  Column Row Layer    Maximum-Flux-Residual          L2-NORM 
          0                 1           2             5    8     1       0.1126599027E+01       5    8    1         0.6217687949E+02      0.6437778049E+02
          0                 2           2             5    8     1       0.3817810186E+00       5    8    1         0.2107624006E+02      0.2144883380E+02
          0                 3           2             5    8     1       0.1057757090E+00       5    8    1         0.5839580879E+01      0.5928365934E+01
          0                 4           2             5    8     1       0.2373942871E-01       5    8    1         0.1319725851E+01      0.1446834846E+01
          0                 5           2             5    8     1       0.1453852669E-01       5    8    1         0.7894795550E+00      0.1217806381E+01
          0                 6           2             5    8     1       0.4078699350E-02       5    8    1         0.2248380116E+00      0.2892739064E+00
          0                 7           2             5    8     1       0.1144306699E-02       5    8    1         0.6312691724E-01      0.8666435455E-01
          0                 8           2             5    8     1       0.3210600334E-03       5    8    1         0.1771134753E-01      0.2636869917E-01
          0                 9           1             5    8     1       0.9008593350E-04       5    8    1         0.4969301934E-02      0.8123691625E-02

    ------------------------------------------------
       NWT REQUIRED            9 OUTER ITERATIONS 
       AND A TOTAL OF         17 INNER ITERATIONS.
    ------------------------------------------------

 NO OUTPUT CONTROL FOR STRESS PERIOD   45   TIME STEP   27
 
 SOLVING FOR HEAD 
                                                   Max.-Head-Change                         Max.-Flux-Residual
  Residual-Control   Outer-Iter.   Inner-Iter.     Column Row Layer    Maximum-Head-Change  Column Row Layer    Maximum-Flux-Residual          L2-NORM 
          0                 1           2             4    8     1       0.1253184053E+01       4    8    1         0.6748145453E+02      0.1101230167E+03
          0                 2           2             4    6     1      -0.1789711460E+01       5    8    1        -0.9858319040E+02      0.2074035950E+03
          0                 3           2             4    7     1      -0.8588989789E+00       4    7    1        -0.4725221343E+02      0.7789035526E+02
          0                 4           2             5    7     1      -0.3651592056E+00       5    7    1        -0.2035333512E+02      0.2836558276E+02
          0                 5           2             5    7     1      -0.2141670011E+00       5    7    1        -0.1217741076E+02      0.1360691454E+02
          0                 6           2             5    7     1      -0.1256109468E+00       5    7    1        -0.7125717268E+01      0.7963874048E+01
          0                 7           2             5    7     1      -0.6527258354E-01       5    7    1        -0.3703046000E+01      0.4270781458E+01
          0                 8           2             4    8     1      -0.2281923988E-01       4    8    1        -0.1272850390E+01      0.1299073042E+01
          0                 9           2             4    8     1      -0.1364071639E-01       4    8    1        -0.7608536531E+00      0.7609287361E+00
          0                10           2             4    8     1      -0.8154000335E-02       4    8    1        -0.4548103271E+00      0.4548111766E+00
                                                   Max.-Head-Change                         Max.-Flux-Residual
  Residual-Control   Outer-Iter.   Inner-Iter.     Column Row Layer    Maximum-Head-Change  Column Row Layer    Maximum-Flux-Residual          L2-NORM 
          0                11           2             4    8     1      -0.4874181546E-02       4    8    1        -0.2718672893E+00      0.2718677821E+00
          0                12           2             4    8     1      -0.2913600766E-02       4    8    1        -0.1625103688E+00      0.1625106634E+00
          0                13           2             4    8     1      -0.1741629255E-02       4    8    1        -0.9714100386E-01      0.9714117995E-01
          0                14           2             4    8     1      -0.1041067006E-02       4    8    1        -0.5806593735E-01      0.5806604261E-01
          0                15           2             4    8     1      -0.6222987725E-03       4    8    1        -0.3470864091E-01      0.3470870383E-01
          0                16           2             4    8     1      -0.3719773419E-03       4    8    1        -0.2074679762E-01      0.2074683523E-01
          0                17           2             4    8     1      -0.2223470160E-03       4    8    1        -0.1240114591E-01      0.1240116879E-01
          0                18           2             4    8     1      -0.1329056356E-03       4    8    1        -0.7412587663E-02      0.7412601398E-02
          0                19           1             4    8     1      -0.7944247406E-04       4    8    1        -0.4430728537E-02      0.4430736704E-02

    ------------------------------------------------
       NWT REQUIRED           19 OUTER ITERATIONS 
       AND A TOTAL OF         37 INNER ITERATIONS.
    ------------------------------------------------

 NO OUTPUT CONTROL FOR STRESS PERIOD   45   TIME STEP   28
 
 SOLVING FOR HEAD 
                                                   Max.-Head-Change                         Max.-Flux-Residual
  Residual-Control   Outer-Iter.   Inner-Iter.     Column Row Layer    Maximum-Head-Change  Column Row Layer    Maximum-Flux-Residual          L2-NORM 
          0                 1           2             4    7     1       0.1218313010E+01       4    7    1         0.6504027331E+02      0.9591236934E+02
          0                 2           2             4    6     1       0.4225101880E+00       4    6    1         0.2256304576E+02      0.3427599257E+02
          0                 3           2             4    6     1       0.2484688877E+00       4    6    1         0.1341259899E+02      0.1538411152E+02
          0                 4           2             4    6     1       0.1398966497E+00       4    6    1         0.7596826658E+01      0.7795775972E+01
          0                 5           2             4    6     1       0.8979430592E-01       4    6    1         0.4873711278E+01      0.5075584792E+01
          0                 6           2             4    6     1       0.5253591137E-01       4    6    1         0.2857544717E+01      0.2889356981E+01
          0                 7           2             4    6     1       0.3069367211E-01       4    6    1         0.1671257858E+01      0.1677497124E+01
          0                 8           2             4    6     1       0.1791995085E-01       4    6    1         0.9762440114E+00      0.9777491365E+00
          0                 9           2             4    6     1       0.1045860010E-01       4    6    1         0.5699121064E+00      0.5703818187E+00
          0                10           2             4    6     1       0.6102884234E-02       4    6    1         0.3326025273E+00      0.3327889132E+00
                                                   Max.-Head-Change                         Max.-Flux-Residual
  Residual-Control   Outer-Iter.   Inner-Iter.     Column Row Layer    Maximum-Head-Change  Column Row Layer    Maximum-Flux-Residual          L2-NORM 
          0                11           2             4    6     1       0.3560896160E-02       4    6    1         0.1940785988E+00      0.1941664080E+00
          0                12           2             4    6     1       0.2077614027E-02       4    6    1         0.1132392859E+00      0.1132850969E+00
          0                13           2             4    6     1       0.1212163365E-02       4    6    1         0.6606939739E-01      0.6609464687E-01
          0                14           2             4    6     1       0.7072172050E-03       4    6    1         0.3854743381E-01      0.3856174963E-01
          0                15           2             4    6     1       0.4126123056E-03       4    6    1         0.2248985002E-01      0.2249808354E-01
          0                16           2             4    6     1       0.2407300937E-03       4    6    1         0.1312126276E-01      0.1312603220E-01
          0                17           2             4    6     1       0.1404487955E-03       4    6    1         0.7655326193E-02      0.7658098908E-02
          0                18           1             4    6     1       0.8194177544E-04       4    6    1         0.4466334720E-02      0.4467949530E-02

    ------------------------------------------------
       NWT REQUIRED           18 OUTER ITERATIONS 
       AND A TOTAL OF         35 INNER ITERATIONS.
    ------------------------------------------------

 NO OUTPUT CONTROL FOR STRESS PERIOD   45   TIME STEP   29
 
 SOLVING FOR HEAD 
                                                   Max.-Head-Change                         Max.-Flux-Residual
  Residual-Control   Outer-Iter.   Inner-Iter.     Column Row Layer    Maximum-Head-Change  Column Row Layer    Maximum-Flux-Residual          L2-NORM 
          0                 1           2             5    8     1       0.1198343218E+01       5    8    1         0.6599434141E+02      0.6770901085E+02
          0                 2           2             4    7     1      -0.2049204085E+00       4    7    1        -0.1103614638E+02      0.2493807287E+02
          0                 3           2             5    6     1      -0.5767010353E-01       5    6    1        -0.3176102201E+01      0.6992955673E+01
          0                 4           2             5    8     1       0.1084594428E-01       5    8    1         0.6107728175E+00      0.9197855071E+00
          0                 5           2             5    8     1       0.3041902915E-02       5    8    1         0.1670490024E+00      0.1732657161E+00
          0                 6           1             5    8     1       0.8531484074E-03       5    8    1         0.4712204951E-01      0.4715070830E-01
          0                 7           1             5    8     1       0.2392786280E-03       5    8    1         0.1320533254E-01      0.1320577441E-01
          0                 8           1             5    8     1       0.6710938821E-04       5    8    1         0.3703552874E-02      0.3703709819E-02

    ------------------------------------------------
       NWT REQUIRED            8 OUTER ITERATIONS 
       AND A TOTAL OF         13 INNER ITERATIONS.
    ------------------------------------------------

 NO OUTPUT CONTROL FOR STRESS PERIOD   45   TIME STEP   30



 STREAM LISTING     PERIOD     45   STEP       30

 LAYER ROW COL. STREAM  RCH.  FLOW INTO     FLOW TO   FLOW OUT OF   OVRLND.     DIRECT     STREAM       STREAM     STREAM     STREAM   STREAMBED  STREAMBED
                SEG.NO.  NO.  STRM. RCH.    AQUIFER    STRM. RCH.    RUNOFF     PRECIP       ET          HEAD       DEPTH      WIDTH   CONDCTNC.   GRADIENT

   1    1    1     1     1    2.7749E+01  2.5751E-01   2.7492E+01  0.000E+00  0.000E+00  0.000E+00  1.09427E+03  1.218E+00  1.357E+01  6.105E-02  1.406E+00
   1    2    2     1     2    2.7492E+01  3.9832E-01   2.7093E+01  0.000E+00  0.000E+00  0.000E+00  1.08927E+03  1.213E+00  1.351E+01  9.454E-02  1.404E+00
   1    3    3     1     3    2.7093E+01  3.3923E-01   2.6754E+01  0.000E+00  0.000E+00  0.000E+00  1.08363E+03  1.208E+00  1.344E+01  8.062E-02  1.403E+00
   1    3    4     1     4    2.6754E+01  3.1200E-01   2.6442E+01  0.000E+00  0.000E+00  0.000E+00  1.07861E+03  1.203E+00  1.337E+01  7.422E-02  1.401E+00
   1    4    5     2     1    2.4442E+01  3.2655E-01   2.4116E+01  0.000E+00  0.000E+00  0.000E+00  1.07312E+03  1.187E+00  1.200E+01  7.800E-02  1.396E+00
   1    5    6     2     2    2.4116E+01  2.5068E-01   2.3865E+01  0.000E+00  0.000E+00  0.000E+00  1.06769E+03  1.178E+00  1.200E+01  6.000E-02  1.393E+00
   1    6    6     2     3    2.3865E+01  2.5024E-01   2.3615E+01  0.000E+00  0.000E+00  0.000E+00  1.06296E+03  1.171E+00  1.200E+01  6.000E-02  1.390E+00
   1    7    6     2     4    2.3615E+01  2.4979E-01   2.3365E+01  0.000E+00  0.000E+00  0.000E+00  1.05824E+03  1.163E+00  1.200E+01  6.000E-02  1.388E+00
   1    8    6     2     5    2.3365E+01  2.4935E-01   2.3115E+01  0.000E+00  0.000E+00  0.000E+00  1.05351E+03  1.156E+00  1.200E+01  6.000E-02  1.385E+00
   1    3    5     3     1    2.0000E+00  2.8252E-01   1.7175E+00  0.000E+00  0.000E+00  0.000E+00  1.07555E+03  1.909E+00  9.636E+00  7.227E-02  1.955E+00
   1    3    6     3     2    1.7175E+00  2.4905E-01   1.4684E+00  0.000E+00  0.000E+00  0.000E+00  1.07264E+03  1.727E+00  8.909E+00  6.682E-02  1.864E+00
   1    3    7     3     3    1.4684E+00  1.9718E-01   1.2712E+00  0.000E+00  0.000E+00  0.000E+00  1.06987E+03  1.555E+00  8.218E+00  5.547E-02  1.777E+00
   1    4    8     3     4    1.2712E+00  2.2567E-01   1.0456E+00  0.000E+00  0.000E+00  0.000E+00  1.06682E+03  1.364E+00  7.455E+00  6.709E-02  1.682E+00
   1    5    8     3     5    1.0456E+00  1.5790E-01   8.8768E-01  0.000E+00  0.000E+00  0.000E+00  1.06362E+03  1.164E+00  6.655E+00  4.991E-02  1.582E+00
   1    6    8     3     6    8.8768E-01  5.5980E-02   8.3170E-01  0.000E+00  0.000E+00  0.000E+00  1.06158E+03  1.036E+00  6.145E+00  1.844E-02  1.518E+00
   1    5   10     4     1    1.0000E+01  9.0919E-02   9.9091E+00  0.000E+00  0.000E+00  0.000E+00  1.07836E+03  6.368E-01  1.000E+01  2.500E-02  1.212E+00
   1    5    9     4     2    9.9091E+00  1.8158E-01   9.7275E+00  0.000E+00  0.000E+00  0.000E+00  1.07154E+03  6.315E-01  1.000E+01  5.000E-02  1.211E+00
   1    6    8     4     3    9.7275E+00  1.2689E-01   9.6006E+00  0.000E+00  0.000E+00  0.000E+00  1.06381E+03  6.256E-01  1.000E+01  3.500E-02  1.209E+00
   1    6    8     5     1    1.0432E+01  2.2686E-01   1.0205E+01  0.000E+00  0.000E+00  0.000E+00  1.05868E+03  6.790E-01  1.542E+01  6.166E-02  1.226E+00
   1    7    7     5     2    1.0205E+01  2.7894E-01   9.9265E+00  0.000E+00  0.000E+00  0.000E+00  1.05417E+03  6.732E-01  1.519E+01  7.594E-02  1.224E+00
   1    8    7     5     3    9.9265E+00  1.9221E-01   9.7343E+00  0.000E+00  0.000E+00  0.000E+00  1.04992E+03  6.676E-01  1.497E+01  5.241E-02  1.223E+00
   1    8    6     5     4    9.7343E+00  1.3577E-01   9.5985E+00  0.000E+00  0.000E+00  0.000E+00  1.04691E+03  6.637E-01  1.482E+01  3.706E-02  1.221E+00
   1    9    6     6     1    9.5985E+00  2.2097E-01   9.3776E+00  0.000E+00  0.000E+00  0.000E+00  1.04341E+03  6.828E-01  1.200E+01  6.000E-02  1.228E+00
   1   10    7     6     2    9.3776E+00  2.2039E-01   9.1572E+00  0.000E+00  0.000E+00  0.000E+00  1.03885E+03  6.732E-01  1.200E+01  6.000E-02  1.224E+00
   1   11    7     6     3    9.1572E+00  2.1981E-01   8.9374E+00  0.000E+00  0.000E+00  0.000E+00  1.03430E+03  6.636E-01  1.200E+01  6.000E-02  1.221E+00
   1   12    7     6     4    8.9374E+00  2.1923E-01   8.7181E+00  0.000E+00  0.000E+00  0.000E+00  1.02974E+03  6.539E-01  1.200E+01  6.000E-02  1.218E+00
   1   13    7     6     5    8.7181E+00 -5.4490E-02   8.7726E+00  0.000E+00  0.000E+00  0.000E+00  1.02656E+03  6.502E-01  1.200E+01  2.400E-01 -7.568E-02
   1   14    9     7     1    1.5000E+02  1.3765E+00   1.4862E+02  0.000E+00  0.000E+00  0.000E+00  1.03987E+03  2.288E+00  5.529E+01  5.593E-01  8.204E-01
   1   13    8     7     2    1.4862E+02  1.9395E+00   1.4668E+02  0.000E+00  0.000E+00  0.000E+00  1.03478E+03  2.279E+00  5.525E+01  6.147E-01  1.052E+00
   1   13    7     7     3    1.4668E+02  1.6206E+00   1.4506E+02  0.000E+00  0.000E+00  0.000E+00  1.02969E+03  2.269E+00  5.521E+01  5.584E-01  9.674E-01
   1   13    6     8     1    1.5384E+02  9.6858E-01   1.5287E+02  0.000E+00  0.000E+00  0.000E+00  1.02472E+03  2.840E+00  4.118E+01  4.197E-01  7.693E-01
   1   13    5     8     2    1.5287E+02  2.2999E-01   1.5264E+02  0.000E+00  0.000E+00  0.000E+00  1.01846E+03  2.836E+00  4.112E+01  4.191E-01  1.829E-01
   1   13    4     8     3    1.5264E+02 -2.3250E+00   1.5496E+02  0.000E+00  0.000E+00  0.000E+00  1.01222E+03  2.843E+00  4.123E+01  4.201E+00 -1.845E-01
   1   13    3     8     4    1.5496E+02 -3.6450E+00   1.5861E+02  0.000E+00  0.000E+00  0.000E+00  1.00599E+03  2.864E+00  4.153E+01  4.232E+00 -2.871E-01
   1   13    2     8     5    1.5861E+02 -2.6879E+00   1.6130E+02  0.000E+00  0.000E+00  0.000E+00  9.99760E+02  2.886E+00  4.184E+01  4.264E+00 -2.101E-01
   1   13    1     8     6    1.6130E+02 -2.0554E+00   1.6335E+02  0.000E+00  0.000E+00  0.000E+00  9.94776E+02  2.901E+00  4.207E+01  2.572E+00 -2.663E-01
   1    8    6     9     1    2.3115E+01  0.0000E+00   2.3115E+01  0.000E+00  0.000E+00  0.000E+00  1.08250E+03  3.746E+00  4.000E+00  0.000E+00  2.249E+00
   1    8    5     9     2    2.3115E+01  0.0000E+00   2.3115E+01  0.000E+00  0.000E+00  0.000E+00  1.08200E+03  3.746E+00  4.000E+00  0.000E+00  2.249E+00





UNSATURATED ZONE PACKAGE VOLUMETRIC BUDGET FOR  TIME STEP    30 STRESS PERIOD   45
  ------------------------------------------------------------------------------



     CUMULATIVE VOLUMES      L**3       RATES FOR THIS TIME STEP      L**3/T
     ------------------                 ------------------------

           IN:                                      IN:
           ---                                      ---
        INFILTRATION = 12801786789.2086          INFILTRATION =          98.2215

          OUT:                                     OUT:
          ----                                     ----
              UZF ET =  1671794243.6035                UZF ET =          49.5675
        UZF RECHARGE = 10424638978.8139          UZF RECHARGE =          92.5478

            IN - OUT =   705353566.7912              IN - OUT =         -43.8939

          STORAGE:                                 STORAGE:
          --------                                 --------
      STORAGE CHANGE =   706803441.2922        STORAGE CHANGE =         -43.8939

 PERCENT DISCREPANCY IS DIFFERENCE BETWEEN IN-OUT MINUS CHANGE IN STORAGE
 DIVIDED BY THE AVERAGE OF IN AND OUT TIMES 100

 PERCENT DISCREPANCY =          -0.00     PERCENT DISCREPANCY =           0.00






1
  VOLUMETRIC BUDGET FOR AGRICULTURAL FIELDS AT  END OF TIME STEP   30, STRESS PERIOD  45
  ------------------------------------------------------------------------------

     CUMULATIVE VOLUMES      L**3       RATES FOR THIS TIME STEP      L**3/T
     ------------------                 ------------------------

           IN:                                      IN:
           ---                                      ---
               AG WELLS  = 11507130368.0000                 AG WELLS  =          74.2580
      DIVERSION SEGMENTS =  1196513408.0000        DIVERSION SEGMENTS =          23.1155
       IRRIGATION PONDS  =           0.0000         IRRIGATION PONDS  =           0.0000
           GW IRRIGATION =           0.0000             GW IRRIGATION =           0.0000
           SW IRRIGATION =           0.0000             SW IRRIGATION =           0.0000
        SYSTEM LOSSES GW =           0.0000          SYSTEM LOSSES GW =           0.0000
        SYSTEM LOSSES SW =           0.0000          SYSTEM LOSSES SW =           0.0000

                TOTAL IN = 12703643648.0000                  TOTAL IN =          97.3735

          OUT:                                     OUT:
          ----                                     ----
               AG WELLS  =           0.0000                 AG WELLS  =           0.0000
      DIVERSION SEGMENTS =           0.0000        DIVERSION SEGMENTS =           0.0000
       IRRIGATION PONDS  =           0.0000         IRRIGATION PONDS  =           0.0000
           GW IRRIGATION = 11507130368.0000             GW IRRIGATION =          74.2580
           SW IRRIGATION =  1196533504.0000             SW IRRIGATION =          23.1159
        SYSTEM LOSSES GW =           0.0000          SYSTEM LOSSES GW =           0.0000
        SYSTEM LOSSES SW =           0.0000          SYSTEM LOSSES SW =           0.0000

               TOTAL OUT = 12703664128.0000                 TOTAL OUT =          97.3740

                IN - OUT =      -20480.0000                  IN - OUT =      -4.6539E-04

     PERCENT DISCREPANCY =          -0.00         PERCENT DISCREPANCY =          -0.00



1
  VOLUMETRIC BUDGET FOR ENTIRE MODEL AT END OF TIME STEP   30, STRESS PERIOD  45
  ------------------------------------------------------------------------------

     CUMULATIVE VOLUMES      L**3       RATES FOR THIS TIME STEP      L**3/T
     ------------------                 ------------------------

           IN:                                      IN:
           ---                                      ---
             STORAGE     =  9760781312.0000               STORAGE     =          60.7778
       CONSTANT HEAD     =           0.0000         CONSTANT HEAD     =           0.0000
     HEAD DEP BOUNDS     =    33227830.0000       HEAD DEP BOUNDS     =           0.2885
      STREAM LEAKAGE     =  1434369536.0000        STREAM LEAKAGE     =          12.0508
        UZF RECHARGE     = 10424634368.0000          UZF RECHARGE     =          92.5478
               GW ET     =           0.0000                 GW ET     =           0.0000
     SURFACE LEAKAGE     =           0.0000       SURFACE LEAKAGE     =           0.0000
           AG WELLS      =           0.0000             AG WELLS      =           0.0000

                TOTAL IN = 21653012480.0000                  TOTAL IN =         165.6650

          OUT:                                     OUT:
          ----                                     ----
             STORAGE     =  8929057792.0000               STORAGE     =          80.3503
       CONSTANT HEAD     =           0.0000         CONSTANT HEAD     =           0.0000
     HEAD DEP BOUNDS     =    33640160.0000       HEAD DEP BOUNDS     =           0.2879
      STREAM LEAKAGE     =  1181542016.0000        STREAM LEAKAGE     =          10.7677
        UZF RECHARGE     =           0.0000          UZF RECHARGE     =           0.0000
               GW ET     =     1532757.2500                 GW ET     =           0.0000
     SURFACE LEAKAGE     =           0.0000       SURFACE LEAKAGE     =           0.0000
           AG WELLS      = 11507130368.0000             AG WELLS      =          74.2580

               TOTAL OUT = 21652903936.0000                 TOTAL OUT =         165.6640

                IN - OUT =      108544.0000                  IN - OUT =       1.0529E-03

     PERCENT DISCREPANCY =           0.00         PERCENT DISCREPANCY =           0.00






         TIME SUMMARY AT END OF TIME STEP   30 IN STRESS PERIOD   45
                    SECONDS     MINUTES      HOURS       DAYS        YEARS
                    -----------------------------------------------------------
   TIME STEP LENGTH  87667.      1461.1      24.352      1.0147     2.77799E-03
 STRESS PERIOD TIME 2.63000E+06  43833.      730.56      30.440     8.33397E-02
         TOTAL TIME 1.15805E+08 1.93009E+06  32168.      1340.3      3.6696    
1
1
                            STRESS PERIOD NO.   46, LENGTH =   2630000.    
                            -----------------------------------------------

                              NUMBER OF TIME STEPS =    30

                               MULTIPLIER FOR DELT =     1.000

                            INITIAL TIME STEP SIZE =   87666.66    

 REUSING NON-PARAMETER GHB CELLS FROM LAST STRESS PERIOD

      2 GHB CELLS

 REUSING STREAM SEGMENT DATA FROM LAST STRESS PERIOD



            AREAL INFILTRATION RATE
 READING ON UNIT   19 WITH FORMAT: (FREE)              

            1           2           3           4           5           6           7           8           9          10
 ........................................................................................................................
   1   1.0000E-10  2.0000E-10   0.000       0.000       0.000       0.000       0.000       0.000       0.000       0.000    
   2   2.0000E-10  1.0000E-10  2.0000E-10   0.000       0.000      8.0000E-10  8.0000E-10  5.0000E-10   0.000       0.000    
   3    0.000      5.0000E-10  1.0000E-10  1.0000E-10  8.0000E-10  8.0000E-10  5.0000E-10  5.0000E-10   0.000       0.000    
   4   8.0000E-10  5.0000E-10  1.0000E-10  1.0000E-10  1.0000E-10  1.0000E-10  1.0000E-10  1.0000E-10  2.0000E-10   0.000    
   5   8.0000E-10  5.0000E-10  1.0000E-10  1.0000E-10  1.0000E-10  1.0000E-10  1.0000E-10  1.0000E-10  1.0000E-10  1.0000E-10
   6   8.0000E-10  5.0000E-10  5.0000E-10  2.0000E-10  2.0000E-10  1.0000E-10  1.0000E-10  1.0000E-10  1.0000E-10  5.0000E-10
   7   8.0000E-10  5.0000E-10  5.0000E-10  2.0000E-10  2.0000E-10  1.0000E-10  1.0000E-10  2.0000E-10  2.0000E-10   0.000    
   8    0.000      5.0000E-10  5.0000E-10  2.0000E-10  2.0000E-10  1.0000E-10  1.0000E-10  2.0000E-10  5.0000E-10   0.000    
   9    0.000      5.0000E-10  5.0000E-10  2.0000E-10  2.0000E-10  1.0000E-10  1.0000E-10  2.0000E-10  5.0000E-10   0.000    
  10    0.000      5.0000E-10  5.0000E-10  2.0000E-10  2.0000E-10  1.0000E-10  1.0000E-10  2.0000E-10  5.0000E-10  8.0000E-10
  11    0.000      1.0000E-10  1.0000E-10  1.0000E-10  1.0000E-10  1.0000E-10  1.0000E-10  2.0000E-10  5.0000E-10   0.000    
  12   1.0000E-10  1.0000E-10  1.0000E-10  1.0000E-10  1.0000E-10  1.0000E-10  1.0000E-10  1.0000E-10  2.0000E-10   0.000    
  13   1.0000E-10  1.0000E-10  2.0000E-10  2.0000E-10  2.0000E-10  2.0000E-10  2.0000E-10  1.0000E-10  1.0000E-10   0.000    
  14    0.000      2.0000E-10  5.0000E-10  5.0000E-10  5.0000E-10  5.0000E-10  5.0000E-10  2.0000E-10  1.0000E-10   0.000    
  15    0.000       0.000      8.0000E-10  8.0000E-10  8.0000E-10  8.0000E-10   0.000       0.000       0.000       0.000    

                  ET RATE =  7.500000E-08

 USING ET EXTINCTION DEPTH FROM PREVIOUS STRESS PERIOD. CURRENT PERIOD IS:      46

 USING EXTINCTION WATER CONTENT FROM PREVIOUS STRESS PERIOD. CURRENT PERIOD IS:      46

 USING AIR ENTRY PRESSURE FROM PREVIOUS STRESS PERIOD. CURRENT PERIOD IS:      46

 USING ROOT PRESSURE HEAD FROM PREVIOUS STRESS PERIOD. CURRENT PERIOD IS:      46

 USING ROOT ACTIVITY FROM PREVIOUS STRESS PERIOD. CURRENT PERIOD IS:      46

 PROCESSING AG STRESS PERIOD DATA

 READING AG STRESS PERIOD DATA

 READING IRRIGATION SEGMENT

 READING IRRIGATION WELL

 READING SUPPLEMENTAL WELL

 NO IRRPOND OR REUSING IRRPOND DATA FROM LAST STRESS PERIOD

 END PROCESSING AG STRESS PERIOD DATA OPTIONS
 
 SOLVING FOR HEAD 
                                                   Max.-Head-Change                         Max.-Flux-Residual
  Residual-Control   Outer-Iter.   Inner-Iter.     Column Row Layer    Maximum-Head-Change  Column Row Layer    Maximum-Flux-Residual          L2-NORM 
          0                 1           2             4    8     1       0.1774023767E+01       4    8    1         0.9590798111E+02      0.1444887253E+03
          0                 2           2             5    7     1       0.7502721967E+00       5    7    1         0.4049301173E+02      0.6597366005E+02
          0                 3           2             5    6     1       0.3767883767E+00       5    6    1         0.2059284032E+02      0.2892050561E+02
          0                 4           2             5    6     1       0.2181888813E+00       5    6    1         0.1197595829E+02      0.1523521284E+02
          0                 5           2             5    6     1       0.1259948957E+00       5    6    1         0.6929939969E+01      0.8614322086E+01
          0                 6           2             5    6     1       0.6222973652E-01       5    6    1         0.3424800226E+01      0.4513289286E+01
          0                 7           2             4    7     1       0.3137306760E-01       4    7    1         0.1703034577E+01      0.1965919076E+01
          0                 8           2             4    7     1       0.1837556158E-01       4    7    1         0.9983868565E+00      0.1037555114E+01
          0                 9           2             4    7     1       0.1075549091E-01       4    7    1         0.5846766985E+00      0.5906393661E+00
          0                10           2             4    7     1       0.6292929249E-02       4    7    1         0.3421894766E+00      0.3432349839E+00
                                                   Max.-Head-Change                         Max.-Flux-Residual
  Residual-Control   Outer-Iter.   Inner-Iter.     Column Row Layer    Maximum-Head-Change  Column Row Layer    Maximum-Flux-Residual          L2-NORM 
          0                11           2             4    7     1       0.3681142960E-02       4    7    1         0.2002015249E+00      0.2004498605E+00
          0                12           1             4    7     1       0.2153088264E-02       4    7    1         0.1171076098E+00      0.1171945198E+00
          0                13           1             4    7     1       0.1259254907E-02       4    7    1         0.6849481249E-01      0.6853503316E-01
          0                14           1             4    7     1       0.7364629187E-03       4    7    1         0.4005954006E-01      0.4008081290E-01
          0                15           1             4    7     1       0.4307054822E-03       4    7    1         0.2342832860E-01      0.2344021969E-01
          0                16           1             4    7     1       0.2518870613E-03       4    7    1         0.1370155400E-01      0.1370835971E-01
          0                17           1             4    7     1       0.1473089729E-03       4    7    1         0.8012993020E-02      0.8016930752E-02
          0                18           1             4    7     1       0.8614923808E-04       4    7    1         0.4686167782E-02      0.4688458184E-02

    ------------------------------------------------
       NWT REQUIRED           18 OUTER ITERATIONS 
       AND A TOTAL OF         29 INNER ITERATIONS.
    ------------------------------------------------

 NO OUTPUT CONTROL FOR STRESS PERIOD   46   TIME STEP    1
 
 SOLVING FOR HEAD 
                                                   Max.-Head-Change                         Max.-Flux-Residual
  Residual-Control   Outer-Iter.   Inner-Iter.     Column Row Layer    Maximum-Head-Change  Column Row Layer    Maximum-Flux-Residual          L2-NORM 
          0                 1           2             4    6     1       0.1838033627E+01       4    6    1         0.9977014056E+02      0.1071838034E+03
          0                 2           2             5    7     1      -0.1818058006E+01       5    6    1        -0.9904629848E+02      0.2247073510E+03
          0                 3           2             4    7     1      -0.5176167344E+00       4    7    1        -0.2880683694E+02      0.4239600966E+02
          0                 4           2             4    7     1      -0.1523153926E+00       4    7    1        -0.8419017994E+01      0.1107778941E+02
          0                 5           2             4    6     1      -0.4865302094E-01       4    6    1        -0.2735997033E+01      0.2799458842E+01
          0                 6           2             4    6     1      -0.2891966044E-01       4    6    1        -0.1621002679E+01      0.1621201684E+01
          0                 7           2             4    6     1      -0.1718992991E-01       4    6    1        -0.9637145145E+00      0.9637162714E+00
          0                 8           2             4    6     1      -0.1021768702E-01       4    6    1        -0.5728228290E+00      0.5728240800E+00
          0                 9           2             4    6     1      -0.6073352851E-02       4    6    1        -0.3404802176E+00      0.3404809585E+00
          0                10           2             4    6     1      -0.3609954931E-02       4    6    1        -0.2023768750E+00      0.2023773154E+00
                                                   Max.-Head-Change                         Max.-Flux-Residual
  Residual-Control   Outer-Iter.   Inner-Iter.     Column Row Layer    Maximum-Head-Change  Column Row Layer    Maximum-Flux-Residual          L2-NORM 
          0                11           2             4    6     1      -0.2145716528E-02       4    6    1        -0.1202893760E+00      0.1202896378E+00
          0                12           2             4    6     1      -0.1275381712E-02       4    6    1        -0.7149752024E-01      0.7149767583E-01
          0                13           2             4    6     1      -0.7580629631E-03       4    6    1        -0.4249638332E-01      0.4249647581E-01
          0                14           2             4    6     1      -0.4505755457E-03       4    6    1        -0.2525865520E-01      0.2525871017E-01
          0                15           2             4    6     1      -0.2678102502E-03       4    6    1        -0.1501293927E-01      0.1501297194E-01
          0                16           2             4    6     1      -0.1591783535E-03       4    6    1        -0.8923155730E-02      0.8923175149E-02
          0                17           1             4    6     1      -0.9461022049E-04       4    6    1        -0.5303571822E-02      0.5303583366E-02

    ------------------------------------------------
       NWT REQUIRED           17 OUTER ITERATIONS 
       AND A TOTAL OF         33 INNER ITERATIONS.
    ------------------------------------------------

 NO OUTPUT CONTROL FOR STRESS PERIOD   46   TIME STEP    2
 
 SOLVING FOR HEAD 
                                                   Max.-Head-Change                         Max.-Flux-Residual
  Residual-Control   Outer-Iter.   Inner-Iter.     Column Row Layer    Maximum-Head-Change  Column Row Layer    Maximum-Flux-Residual          L2-NORM 
          0                 1           2             5    8     1       0.1159748495E+01       5    8    1         0.6401427781E+02      0.6509359752E+02
          0                 2           2             5    8     1       0.3544781836E+00       5    8    1         0.1962490838E+02      0.2014396113E+02
          0                 3           2             5    8     1       0.1152533813E+00       5    8    1         0.6330933771E+01      0.6712621644E+01
          0                 4           2             5    8     1       0.3232590929E-01       5    8    1         0.1785282913E+01      0.1808188762E+01
          0                 5           2             5    8     1       0.9066745257E-02       5    8    1         0.5003579914E+00      0.5064806237E+00
          0                 6           2             5    8     1       0.2543042828E-02       5    8    1         0.1403365581E+00      0.1421119259E+00
          0                 7           2             5    8     1       0.7132739635E-03       5    8    1         0.3936168436E-01      0.3987604404E-01
          0                 8           1             5    8     1       0.2000595099E-03       5    8    1         0.1104018583E-01      0.1118920600E-01
          0                 9           1             5    8     1       0.5611281850E-04       5    8    1         0.3096558647E-02      0.3139727410E-02

    ------------------------------------------------
       NWT REQUIRED            9 OUTER ITERATIONS 
       AND A TOTAL OF         16 INNER ITERATIONS.
    ------------------------------------------------

 NO OUTPUT CONTROL FOR STRESS PERIOD   46   TIME STEP    3
 
 SOLVING FOR HEAD 
                                                   Max.-Head-Change                         Max.-Flux-Residual
  Residual-Control   Outer-Iter.   Inner-Iter.     Column Row Layer    Maximum-Head-Change  Column Row Layer    Maximum-Flux-Residual          L2-NORM 
          0                 1           2             4    8     1       0.1231669918E+01       4    8    1         0.6620426498E+02      0.1101390868E+03
          0                 2           2             4    7     1       0.4706875356E+00       4    7    1         0.2503520409E+02      0.4521584637E+02
          0                 3           2             4    7     1       0.2794353711E+00       4    7    1         0.1502997681E+02      0.2277563217E+02
          0                 4           2             4    7     1       0.1647191482E+00       4    7    1         0.8906255912E+01      0.1273585949E+02
          0                 5           2             4    7     1       0.9675029652E-01       4    7    1         0.5245364550E+01      0.6090608303E+01
          0                 6           2             4    7     1       0.5671978131E-01       4    7    1         0.3079540441E+01      0.3295320858E+01
          0                 7           2             4    7     1       0.3321808525E-01       4    7    1         0.1804935547E+01      0.1888751568E+01
          0                 8           2             4    7     1       0.1944371214E-01       4    7    1         0.1056926306E+01      0.1098984642E+01
          0                 9           2             4    7     1       0.1137781664E-01       4    7    1         0.6186128658E+00      0.6417188647E+00
          0                10           2             4    7     1       0.6656907644E-02       4    7    1         0.3619783670E+00      0.3750080410E+00
                                                   Max.-Head-Change                         Max.-Flux-Residual
  Residual-Control   Outer-Iter.   Inner-Iter.     Column Row Layer    Maximum-Head-Change  Column Row Layer    Maximum-Flux-Residual          L2-NORM 
          0                11           2             4    7     1       0.3894492756E-02       4    7    1         0.2117813426E+00      0.2191841746E+00
          0                12           1             4    7     1       0.2278296377E-02       4    7    1         0.1238972082E+00      0.1281132387E+00
          0                13           1             4    7     1       0.1332781388E-02       4    7    1         0.7248003129E-01      0.7488334702E-01
          0                14           1             4    7     1       0.7796530398E-03       4    7    1         0.4239998328E-01      0.4377058603E-01
          0                15           1             4    7     1       0.4560787741E-03       4    7    1         0.2480317724E-01      0.2558503623E-01
          0                16           1             4    7     1       0.2667936875E-03       4    7    1         0.1450926007E-01      0.1495535609E-01
          0                17           1             4    7     1       0.1560662738E-03       4    7    1         0.8487515307E-02      0.8742078769E-02
          0                18           1             4    7     1       0.9129368196E-04       4    7    1         0.4964937391E-02      0.5110223572E-02

    ------------------------------------------------
       NWT REQUIRED           18 OUTER ITERATIONS 
       AND A TOTAL OF         29 INNER ITERATIONS.
    ------------------------------------------------

 NO OUTPUT CONTROL FOR STRESS PERIOD   46   TIME STEP    4
 
 SOLVING FOR HEAD 
                                                   Max.-Head-Change                         Max.-Flux-Residual
  Residual-Control   Outer-Iter.   Inner-Iter.     Column Row Layer    Maximum-Head-Change  Column Row Layer    Maximum-Flux-Residual          L2-NORM 
          0                 1           2             4    6     1       0.1832100937E+01       4    6    1         0.9951064863E+02      0.1308755633E+03
          0                 2           2             4    6     1       0.5256508625E+00       4    6    1         0.2851995664E+02      0.4119541537E+02
          0                 3           2             4    8     1       0.1878990913E+00       4    8    1         0.1006881362E+02      0.1561061223E+02
          0                 4           2             4    8     1       0.1111463201E+00       4    8    1         0.5992515529E+01      0.7499639234E+01
          0                 5           2             4    8     1       0.6548422920E-01       4    8    1         0.3541053849E+01      0.4129263944E+01
          0                 6           2             4    8     1       0.3850712034E-01       4    8    1         0.2085257011E+01      0.2378898683E+01
          0                 7           2             4    8     1       0.2262226554E-01       4    8    1         0.1225913081E+01      0.1386459821E+01
          0                 8           2             4    8     1       0.1328401699E-01       4    8    1         0.7201181586E+00      0.8102379309E+00
          0                 9           2             4    8     1       0.7798696990E-02       4    8    1         0.4228360104E+00      0.4737928743E+00
          0                10           2             4    8     1       0.4577868007E-02       4    8    1         0.2482287258E+00      0.2771023730E+00
                                                   Max.-Head-Change                         Max.-Flux-Residual
  Residual-Control   Outer-Iter.   Inner-Iter.     Column Row Layer    Maximum-Head-Change  Column Row Layer    Maximum-Flux-Residual          L2-NORM 
          0                11           2             4    8     1       0.2687058935E-02       4    8    1         0.1457091509E+00      0.1620809601E+00
          0                12           2             4    8     1       0.1577159608E-02       4    8    1         0.8552583217E-01      0.9481133986E-01
          0                13           2             4    8     1       0.9256876153E-03       4    8    1         0.5019885121E-01      0.5546593238E-01
          0                14           2             4    8     1       0.5433085085E-03       4    8    1         0.2946329530E-01      0.3245121559E-01
          0                15           2             4    8     1       0.3188770489E-03       4    8    1         0.1729268613E-01      0.1898778424E-01
          0                16           2             4    8     1       0.1871524328E-03       4    8    1         0.1014935590E-01      0.1111106729E-01
          0                17           1             4    8     1       0.1098407687E-03       4    8    1         0.5956759355E-02      0.6502414317E-02
          0                18           1             4    8     1       0.6446555892E-04       4    8    1         0.3496049287E-02      0.3805660371E-02

    ------------------------------------------------
       NWT REQUIRED           18 OUTER ITERATIONS 
       AND A TOTAL OF         34 INNER ITERATIONS.
    ------------------------------------------------

 NO OUTPUT CONTROL FOR STRESS PERIOD   46   TIME STEP    5
 
 SOLVING FOR HEAD 
                                                   Max.-Head-Change                         Max.-Flux-Residual
  Residual-Control   Outer-Iter.   Inner-Iter.     Column Row Layer    Maximum-Head-Change  Column Row Layer    Maximum-Flux-Residual          L2-NORM 
          0                 1           2             5    6     1       0.1645435334E+01       5    6    1         0.8915929336E+02      0.1461748916E+03
          0                 2           2             4    7     1       0.6527333088E+00       4    7    1         0.3483575422E+02      0.5265945791E+02
          0                 3           2             4    6     1       0.2172223760E+00       4    6    1         0.1159387258E+02      0.1850196486E+02
          0                 4           2             4    6     1       0.1284274803E+00       4    6    1         0.6932387629E+01      0.8144497741E+01
          0                 5           2             4    6     1       0.7537776277E-01       4    6    1         0.4090832602E+01      0.4290161499E+01
          0                 6           2             4    6     1       0.4408493447E-01       4    6    1         0.2398833489E+01      0.2432771879E+01
          0                 7           2             4    6     1       0.2573851221E-01       4    6    1         0.1402339703E+01      0.1408820128E+01
          0                 8           2             4    6     1       0.1501431820E-01       4    6    1         0.8185615304E+00      0.8200601682E+00
          0                 9           2             4    6     1       0.8754767410E-02       4    6    1         0.4774486213E+00      0.4778929171E+00
          0                10           2             4    6     1       0.5103792663E-02       4    6    1         0.2783828756E+00      0.2785512663E+00
                                                   Max.-Head-Change                         Max.-Flux-Residual
  Residual-Control   Outer-Iter.   Inner-Iter.     Column Row Layer    Maximum-Head-Change  Column Row Layer    Maximum-Flux-Residual          L2-NORM 
          0                11           2             4    6     1       0.2975065839E-02       4    6    1         0.1622854199E+00      0.1623622769E+00
          0                12           2             4    6     1       0.1734115055E-02       4    6    1         0.9459701078E-01      0.9463636651E-01
          0                13           2             4    6     1       0.1010760375E-02       4    6    1         0.5513862680E-01      0.5516009635E-01
          0                14           2             4    6     1       0.5891325682E-03       4    6    1         0.3213844516E-01      0.3215054892E-01
          0                15           2             4    6     1       0.3433801099E-03       4    6    1         0.1873220927E-01      0.1873914758E-01
          0                16           2             4    6     1       0.2001409172E-03       4    6    1         0.1091819295E-01      0.1092220360E-01
          0                17           2             4    6     1       0.1166530137E-03       4    6    1         0.6363724174E-02      0.6366052132E-02
          0                18           1             4    6     1       0.6799166943E-04       4    6    1         0.3709123908E-02      0.3710477996E-02

    ------------------------------------------------
       NWT REQUIRED           18 OUTER ITERATIONS 
       AND A TOTAL OF         35 INNER ITERATIONS.
    ------------------------------------------------

 NO OUTPUT CONTROL FOR STRESS PERIOD   46   TIME STEP    6
 
 SOLVING FOR HEAD 
                                                   Max.-Head-Change                         Max.-Flux-Residual
  Residual-Control   Outer-Iter.   Inner-Iter.     Column Row Layer    Maximum-Head-Change  Column Row Layer    Maximum-Flux-Residual          L2-NORM 
          0                 1           2             4    6     1       0.6226789124E+00       4    6    1         0.3394493780E+02      0.3447980998E+02
          0                 2           2             5    6     1      -0.1864035171E+01       5    6    1        -0.1001564357E+03      0.2404324360E+03
          0                 3           2             4    6     1      -0.5085616655E+00       4    6    1        -0.2866071407E+02      0.3149446293E+02
          0                 4           2             4    6     1      -0.1541056037E+00       4    6    1        -0.8628258940E+01      0.8662856733E+01
          0                 5           2             4    6     1      -0.2346359298E-01       4    6    1        -0.1315984623E+01      0.1316206520E+01
          0                 6           2             4    6     1       0.1598449640E-02       4    6    1         0.9217359182E-01      0.9219113142E-01
          0                 7           1             4    6     1      -0.6364914498E-04       4    6    1        -0.3772795857E-02      0.3773694900E-02

    ------------------------------------------------
       NWT REQUIRED            7 OUTER ITERATIONS 
       AND A TOTAL OF         13 INNER ITERATIONS.
    ------------------------------------------------

 NO OUTPUT CONTROL FOR STRESS PERIOD   46   TIME STEP    7
 
 SOLVING FOR HEAD 
                                                   Max.-Head-Change                         Max.-Flux-Residual
  Residual-Control   Outer-Iter.   Inner-Iter.     Column Row Layer    Maximum-Head-Change  Column Row Layer    Maximum-Flux-Residual          L2-NORM 
          0                 1           2             5    8     1       0.5186087938E-01       5    8    1         0.2823967646E+01      0.4264107701E+01
          0                 2           2             5    8     1      -0.3909985460E-01       5    8    1        -0.2157401638E+01      0.4890739969E+01
          0                 3           2             4    7     1       0.1210804215E-01       5    8    1         0.6822842968E+00      0.1581025773E+01
          0                 4           2             4    7     1      -0.4817919598E-03       5    8    1        -0.2790167215E-01      0.6490596469E-01
          0                 5           1             4    7     1       0.5940701330E-05       5    8    1         0.3533390638E-03      0.8654212629E-03

    ------------------------------------------------
       NWT REQUIRED            5 OUTER ITERATIONS 
       AND A TOTAL OF          9 INNER ITERATIONS.
    ------------------------------------------------

 NO OUTPUT CONTROL FOR STRESS PERIOD   46   TIME STEP    8
 
 SOLVING FOR HEAD 
                                                   Max.-Head-Change                         Max.-Flux-Residual
  Residual-Control   Outer-Iter.   Inner-Iter.     Column Row Layer    Maximum-Head-Change  Column Row Layer    Maximum-Flux-Residual          L2-NORM 
          0                 1           2             5    8     1       0.5026514507E-01       5    8    1         0.2734891386E+01      0.4647108843E+01
          0                 2           2             4    6     1       0.1286839122E-01       4    6    1         0.7049476446E+00      0.8114007332E+00
          0                 3           2             4    6     1       0.3667757304E-02       4    6    1         0.1998364258E+00      0.2018271351E+00
          0                 4           2             4    6     1       0.1045387416E-02       4    6    1         0.5702342236E-01      0.5703408671E-01
          0                 5           2             4    6     1       0.2979573024E-03       4    6    1         0.1625018549E-01      0.1625043314E-01
          0                 6           1             4    6     1       0.8492407501E-04       4    6    1         0.4631752942E-02      0.4631799958E-02

    ------------------------------------------------
       NWT REQUIRED            6 OUTER ITERATIONS 
       AND A TOTAL OF         11 INNER ITERATIONS.
    ------------------------------------------------

 NO OUTPUT CONTROL FOR STRESS PERIOD   46   TIME STEP    9
 
 SOLVING FOR HEAD 
                                                   Max.-Head-Change                         Max.-Flux-Residual
  Residual-Control   Outer-Iter.   Inner-Iter.     Column Row Layer    Maximum-Head-Change  Column Row Layer    Maximum-Flux-Residual          L2-NORM 
          0                 1           2             4    6     1       0.4892746415E-01       4    6    1         0.2636477910E+01      0.4684549834E+01
          0                 2           2             4    6     1       0.1394522084E-01       4    6    1         0.7638961740E+00      0.8564152962E+00
          0                 3           2             4    6     1       0.3974650028E-02       4    6    1         0.2165623795E+00      0.2182749674E+00
          0                 4           2             4    6     1       0.1132850903E-02       4    6    1         0.6179471153E-01      0.6180366341E-01
          0                 5           2             4    6     1       0.3228841395E-03       4    6    1         0.1760980125E-01      0.1761006558E-01
          0                 6           1             4    6     1       0.9202815117E-04       4    6    1         0.5019247598E-02      0.5019299648E-02

    ------------------------------------------------
       NWT REQUIRED            6 OUTER ITERATIONS 
       AND A TOTAL OF         11 INNER ITERATIONS.
    ------------------------------------------------

 NO OUTPUT CONTROL FOR STRESS PERIOD   46   TIME STEP   10
 
 SOLVING FOR HEAD 
                                                   Max.-Head-Change                         Max.-Flux-Residual
  Residual-Control   Outer-Iter.   Inner-Iter.     Column Row Layer    Maximum-Head-Change  Column Row Layer    Maximum-Flux-Residual          L2-NORM 
          0                 1           2             5    8     1       0.4599262373E-01       5    8    1         0.2497335328E+01      0.4533075954E+01
          0                 2           2             4    6     1       0.1310806078E-01       4    6    1         0.7184516242E+00      0.8126635447E+00
          0                 3           2             4    6     1       0.3736021376E-02       4    6    1         0.2035322790E+00      0.2052860778E+00
          0                 4           2             4    6     1       0.1064830770E-02       4    6    1         0.5808587985E-01      0.5809491126E-01
          0                 5           2             4    6     1       0.3034952673E-03       4    6    1         0.1655236465E-01      0.1655262364E-01
          0                 6           1             4    6     1       0.8650142882E-04       4    6    1         0.4717842529E-02      0.4717889887E-02

    ------------------------------------------------
       NWT REQUIRED            6 OUTER ITERATIONS 
       AND A TOTAL OF         11 INNER ITERATIONS.
    ------------------------------------------------

 NO OUTPUT CONTROL FOR STRESS PERIOD   46   TIME STEP   11
 
 SOLVING FOR HEAD 
                                                   Max.-Head-Change                         Max.-Flux-Residual
  Residual-Control   Outer-Iter.   Inner-Iter.     Column Row Layer    Maximum-Head-Change  Column Row Layer    Maximum-Flux-Residual          L2-NORM 
          0                 1           2             5    8     1       0.4406191893E-01       5    8    1         0.2390063428E+01      0.4396962629E+01
          0                 2           2             4    7     1      -0.1865351740E+01       5    8    1        -0.1002390098E+03      0.2449547174E+03
          0                 3           2             4    7     1       0.1264368530E+00       5    8    1         0.7015775030E+01      0.1634692467E+02
          0                 4           2             4    7     1      -0.5031229479E-02       5    8    1        -0.2869500486E+00      0.6708399577E+00
          0                 5           1             4    7     1       0.6203693301E-04       5    8    1         0.3636534509E-02      0.9209175909E-02

    ------------------------------------------------
       NWT REQUIRED            5 OUTER ITERATIONS 
       AND A TOTAL OF          9 INNER ITERATIONS.
    ------------------------------------------------

 NO OUTPUT CONTROL FOR STRESS PERIOD   46   TIME STEP   12
 
 SOLVING FOR HEAD 
                                                   Max.-Head-Change                         Max.-Flux-Residual
  Residual-Control   Outer-Iter.   Inner-Iter.     Column Row Layer    Maximum-Head-Change  Column Row Layer    Maximum-Flux-Residual          L2-NORM 
          0                 1           2             5    8     1       0.9608565490E-01       5    8    1         0.5259827459E+01      0.8782906697E+01
          0                 2           2             5    8     1      -0.4340174750E-01       5    8    1        -0.2400986251E+01      0.5399957225E+01
          0                 3           2             5    8     1       0.1234237139E-01       5    8    1         0.6993427491E+00      0.1680184044E+01
          0                 4           2             5    8     1      -0.4911152778E-03       5    8    1        -0.2860233257E-01      0.6894462670E-01
          0                 5           1             5    8     1       0.6055662940E-05       5    8    1         0.3624202077E-03      0.9142163716E-03

    ------------------------------------------------
       NWT REQUIRED            5 OUTER ITERATIONS 
       AND A TOTAL OF          9 INNER ITERATIONS.
    ------------------------------------------------

 NO OUTPUT CONTROL FOR STRESS PERIOD   46   TIME STEP   13
 
 SOLVING FOR HEAD 
                                                   Max.-Head-Change                         Max.-Flux-Residual
  Residual-Control   Outer-Iter.   Inner-Iter.     Column Row Layer    Maximum-Head-Change  Column Row Layer    Maximum-Flux-Residual          L2-NORM 
          0                 1           2             5    8     1       0.9202936693E-01       5    8    1         0.5033043545E+01      0.8535835773E+01
          0                 2           2             5    8     1      -0.8951995478E-02       5    8    1        -0.5033076723E+00      0.8562763721E+00
          0                 3           2             5    8     1       0.6095972392E-03       5    8    1         0.3523152086E-01      0.5993722734E-01
          0                 4           1             5    8     1      -0.2425644665E-04       5    8    1        -0.1440971351E-02      0.2451290710E-02

    ------------------------------------------------
       NWT REQUIRED            4 OUTER ITERATIONS 
       AND A TOTAL OF          7 INNER ITERATIONS.
    ------------------------------------------------

 NO OUTPUT CONTROL FOR STRESS PERIOD   46   TIME STEP   14
 
 SOLVING FOR HEAD 
                                                   Max.-Head-Change                         Max.-Flux-Residual
  Residual-Control   Outer-Iter.   Inner-Iter.     Column Row Layer    Maximum-Head-Change  Column Row Layer    Maximum-Flux-Residual          L2-NORM 
          0                 1           2             5    8     1       0.8753384020E-01       5    8    1         0.4782364508E+01      0.8228355094E+01
          0                 2           2             5    8     1      -0.8514701226E-02       5    8    1        -0.4782396226E+00      0.8228111375E+00
          0                 3           2             5    8     1       0.5798191446E-03       5    8    1         0.3347675814E-01      0.5759524337E-01
          0                 4           1             5    8     1      -0.2307154832E-04       5    8    1        -0.1369201455E-02      0.2355539408E-02

    ------------------------------------------------
       NWT REQUIRED            4 OUTER ITERATIONS 
       AND A TOTAL OF          7 INNER ITERATIONS.
    ------------------------------------------------

 NO OUTPUT CONTROL FOR STRESS PERIOD   46   TIME STEP   15
 
 SOLVING FOR HEAD 
                                                   Max.-Head-Change                         Max.-Flux-Residual
  Residual-Control   Outer-Iter.   Inner-Iter.     Column Row Layer    Maximum-Head-Change  Column Row Layer    Maximum-Flux-Residual          L2-NORM 
          0                 1           2             5    8     1       0.8334132234E-01       5    8    1         0.4548753172E+01      0.7942504089E+01
          0                 2           2             5    8     1      -0.8106880911E-02       5    8    1        -0.4548783083E+00      0.7942292013E+00
          0                 3           2             5    8     1       0.5520481175E-03       5    8    1         0.3184146705E-01      0.5559470288E-01
          0                 4           1             5    8     1      -0.2196651343E-04       5    8    1        -0.1302317964E-02      0.2273745660E-02

    ------------------------------------------------
       NWT REQUIRED            4 OUTER ITERATIONS 
       AND A TOTAL OF          7 INNER ITERATIONS.
    ------------------------------------------------

 NO OUTPUT CONTROL FOR STRESS PERIOD   46   TIME STEP   16
 
 SOLVING FOR HEAD 
                                                   Max.-Head-Change                         Max.-Flux-Residual
  Residual-Control   Outer-Iter.   Inner-Iter.     Column Row Layer    Maximum-Head-Change  Column Row Layer    Maximum-Flux-Residual          L2-NORM 
          0                 1           2             5    8     1       0.7942842577E-01       5    8    1         0.4330883632E+01      0.7676073476E+01
          0                 2           2             5    8     1      -0.1763025119E-01       5    8    1        -0.9783849257E+00      0.2062950798E+01
          0                 3           2             5    8     1       0.1015231203E-01       5    8    1         0.5751363408E+00      0.1388649817E+01
          0                 4           1             5    8     1      -0.5882763771E-04       5    8    1        -0.3442356256E-02      0.7528346592E-02

    ------------------------------------------------
       NWT REQUIRED            4 OUTER ITERATIONS 
       AND A TOTAL OF          7 INNER ITERATIONS.
    ------------------------------------------------

 NO OUTPUT CONTROL FOR STRESS PERIOD   46   TIME STEP   17
 
 SOLVING FOR HEAD 
                                                   Max.-Head-Change                         Max.-Flux-Residual
  Residual-Control   Outer-Iter.   Inner-Iter.     Column Row Layer    Maximum-Head-Change  Column Row Layer    Maximum-Flux-Residual          L2-NORM 
          0                 1           2             5    8     1       0.7578376372E-01       5    8    1         0.4128099792E+01      0.7428945071E+01
          0                 2           2             4    7     1      -0.1866795130E+01       5    8    1        -0.1004128126E+03      0.2456283425E+03
          0                 3           2             4    7     1       0.1271023544E+00       5    8    1         0.7026612834E+01      0.1719341899E+02
          0                 4           2             4    7     1      -0.5057615315E-02       5    8    1        -0.2872646705E+00      0.7051907976E+00
          0                 5           1             4    7     1       0.6236243413E-04       4    7    1         0.3633712360E-02      0.9624133719E-02

    ------------------------------------------------
       NWT REQUIRED            5 OUTER ITERATIONS 
       AND A TOTAL OF          9 INNER ITERATIONS.
    ------------------------------------------------

 NO OUTPUT CONTROL FOR STRESS PERIOD   46   TIME STEP   18
 
 SOLVING FOR HEAD 
                                                   Max.-Head-Change                         Max.-Flux-Residual
  Residual-Control   Outer-Iter.   Inner-Iter.     Column Row Layer    Maximum-Head-Change  Column Row Layer    Maximum-Flux-Residual          L2-NORM 
          0                 1           2             5    8     1       0.1262084006E+00       5    8    1         0.6908791997E+01      0.1306785374E+02
          0                 2           2             5    8     1      -0.4633182584E-01       5    8    1        -0.2565876771E+01      0.5770434490E+01
          0                 3           2             5    8     1       0.1254191169E-01       5    8    1         0.7108852137E+00      0.1704943600E+01
          0                 4           2             5    8     1      -0.4990551446E-03       5    8    1        -0.2907529317E-01      0.6995842457E-01
          0                 5           1             5    8     1       0.6153565027E-05       5    8    1         0.3684734963E-03      0.9265032475E-03

    ------------------------------------------------
       NWT REQUIRED            5 OUTER ITERATIONS 
       AND A TOTAL OF          9 INNER ITERATIONS.
    ------------------------------------------------

 NO OUTPUT CONTROL FOR STRESS PERIOD   46   TIME STEP   19
 
 SOLVING FOR HEAD 
                                                   Max.-Head-Change                         Max.-Flux-Residual
  Residual-Control   Outer-Iter.   Inner-Iter.     Column Row Layer    Maximum-Head-Change  Column Row Layer    Maximum-Flux-Residual          L2-NORM 
          0                 1           2             5    8     1       0.1206493710E+00       5    8    1         0.6598363870E+01      0.1263517757E+02
          0                 2           2             5    8     1      -0.1173579186E-01       5    8    1        -0.6598343587E+00      0.1265347123E+01
          0                 3           2             5    8     1       0.7991642101E-03       5    8    1         0.4618844442E-01      0.8857310502E-01
          0                 4           1             5    8     1      -0.3179949063E-04       5    8    1        -0.1889109915E-02      0.3622542196E-02

    ------------------------------------------------
       NWT REQUIRED            4 OUTER ITERATIONS 
       AND A TOTAL OF          7 INNER ITERATIONS.
    ------------------------------------------------

 NO OUTPUT CONTROL FOR STRESS PERIOD   46   TIME STEP   20
 
 SOLVING FOR HEAD 
                                                   Max.-Head-Change                         Max.-Flux-Residual
  Residual-Control   Outer-Iter.   Inner-Iter.     Column Row Layer    Maximum-Head-Change  Column Row Layer    Maximum-Flux-Residual          L2-NORM 
          0                 1           2             5    8     1       0.1147499839E+00       5    8    1         0.6269589641E+01      0.1215128429E+02
          0                 2           2             5    8     1      -0.1116202095E-01       5    8    1        -0.6269573647E+00      0.1215090628E+01
          0                 3           2             5    8     1       0.7600924773E-03       5    8    1         0.4388704971E-01      0.8505553088E-01
          0                 4           1             5    8     1      -0.3024479013E-04       5    8    1        -0.1794982766E-02      0.3478699641E-02

    ------------------------------------------------
       NWT REQUIRED            4 OUTER ITERATIONS 
       AND A TOTAL OF          7 INNER ITERATIONS.
    ------------------------------------------------

 NO OUTPUT CONTROL FOR STRESS PERIOD   46   TIME STEP   21
 
 SOLVING FOR HEAD 
                                                   Max.-Head-Change                         Max.-Flux-Residual
  Residual-Control   Outer-Iter.   Inner-Iter.     Column Row Layer    Maximum-Head-Change  Column Row Layer    Maximum-Flux-Residual          L2-NORM 
          0                 1           2             5    8     1       0.1092449811E+00       5    8    1         0.5963023922E+01      0.1169993603E+02
          0                 2           2             5    8     1      -0.1062643038E-01       5    8    1        -0.5963011061E+00      0.1170010481E+01
          0                 3           2             5    8     1       0.7236207039E-03       5    8    1         0.4174110788E-01      0.8190001970E-01
          0                 4           1             5    8     1      -0.2879354410E-04       5    8    1        -0.1707213625E-02      0.3349638246E-02

    ------------------------------------------------
       NWT REQUIRED            4 OUTER ITERATIONS 
       AND A TOTAL OF          7 INNER ITERATIONS.
    ------------------------------------------------

 NO OUTPUT CONTROL FOR STRESS PERIOD   46   TIME STEP   22
 
 SOLVING FOR HEAD 
                                                   Max.-Head-Change                         Max.-Flux-Residual
  Residual-Control   Outer-Iter.   Inner-Iter.     Column Row Layer    Maximum-Head-Change  Column Row Layer    Maximum-Flux-Residual          L2-NORM 
          0                 1           2             5    8     1       0.2878146622E+00       5    8    1         0.1582185944E+02      0.1858230754E+02
          0                 2           2             5    8     1       0.1127965989E+00       5    8    1         0.6253180688E+01      0.6604322513E+01
          0                 3           2             5    8     1       0.5765569303E-01       5    8    1         0.3166353526E+01      0.3417488198E+01
          0                 4           2             5    8     1       0.2501007825E-01       5    8    1         0.1381120270E+01      0.1381136034E+01
          0                 5           2             5    8     1       0.9679248716E-02       5    8    1         0.5361549671E+00      0.5493112056E+00
          0                 6           2             5    8     1       0.5489474196E-02       5    8    1         0.3008488174E+00      0.3431882561E+00
          0                 7           1             5    8     1       0.2345548710E-02       5    8    1         0.1294780019E+00      0.1295164688E+00
          0                 8           1             5    8     1       0.1002208696E-02       5    8    1         0.5533728183E-01      0.5533846239E-01
          0                 9           1             5    8     1       0.4282248669E-03       5    8    1         0.2364477532E-01      0.2364521358E-01
          0                10           1             5    8     1       0.1829724074E-03       5    8    1         0.1010297030E-01      0.1010315670E-01
          0                11           1             5    8     1       0.7818065834E-04       5    8    1         0.4316808817E-02      0.4316888442E-02

    ------------------------------------------------
       NWT REQUIRED           11 OUTER ITERATIONS 
       AND A TOTAL OF         17 INNER ITERATIONS.
    ------------------------------------------------

 NO OUTPUT CONTROL FOR STRESS PERIOD   46   TIME STEP   23
 
 SOLVING FOR HEAD 
                                                   Max.-Head-Change                         Max.-Flux-Residual
  Residual-Control   Outer-Iter.   Inner-Iter.     Column Row Layer    Maximum-Head-Change  Column Row Layer    Maximum-Flux-Residual          L2-NORM 
          0                 1           2             5    8     1       0.3435029593E+00       5    8    1         0.1887459445E+02      0.2119919259E+02
          0                 2           2             4    7     1      -0.1868236774E+01       5    6    1        -0.1004431230E+03      0.2426589202E+03
          0                 3           2             5    8     1      -0.3166016048E+00       5    8    1        -0.1817553374E+02      0.2402586959E+02
          0                 4           2             5    8     1       0.2155508272E-01       5    8    1         0.1266788307E+01      0.1424737600E+01
          0                 5           1             5    8     1      -0.8579161752E-03       5    8    1        -0.5156232676E-01      0.5243571990E-01
          0                 6           1             5    8     1       0.1058630689E-04       5    8    1         0.6495655873E-03      0.6784777116E-03

    ------------------------------------------------
       NWT REQUIRED            6 OUTER ITERATIONS 
       AND A TOTAL OF         10 INNER ITERATIONS.
    ------------------------------------------------

 NO OUTPUT CONTROL FOR STRESS PERIOD   46   TIME STEP   24
 
 SOLVING FOR HEAD 
                                                   Max.-Head-Change                         Max.-Flux-Residual
  Residual-Control   Outer-Iter.   Inner-Iter.     Column Row Layer    Maximum-Head-Change  Column Row Layer    Maximum-Flux-Residual          L2-NORM 
          0                 1           2             5    6     1       0.1297120926E+00       5    6    1         0.7060931562E+01      0.1597763911E+02
          0                 2           2             5    6     1      -0.4672614663E-01       5    6    1        -0.2581077867E+01      0.6042413044E+01
          0                 3           2             4    8     1       0.1258575198E-01       5    6    1         0.7119497848E+00      0.1723242949E+01
          0                 4           2             4    8     1      -0.5007995634E-03       5    6    1        -0.2911882610E-01      0.7070437795E-01
          0                 5           1             4    8     1       0.6175064482E-05       5    6    1         0.3690252290E-03      0.9352329685E-03

    ------------------------------------------------
       NWT REQUIRED            5 OUTER ITERATIONS 
       AND A TOTAL OF          9 INNER ITERATIONS.
    ------------------------------------------------

 NO OUTPUT CONTROL FOR STRESS PERIOD   46   TIME STEP   25
 
 SOLVING FOR HEAD 
                                                   Max.-Head-Change                         Max.-Flux-Residual
  Residual-Control   Outer-Iter.   Inner-Iter.     Column Row Layer    Maximum-Head-Change  Column Row Layer    Maximum-Flux-Residual          L2-NORM 
          0                 1           2             5    6     1       0.1246243713E+00       5    6    1         0.6778959156E+01      0.1545947077E+02
          0                 2           2             5    6     1      -0.1211903173E-01       5    6    1        -0.6778818419E+00      0.1414941867E+01
          0                 3           2             5    8     1       0.1252410118E-02       5    8    1         0.6844903167E-01      0.1197825688E+00
          0                 4           1             5    8     1       0.5156839248E-03       5    8    1         0.2848062834E-01      0.2875940651E-01
          0                 5           1             5    8     1       0.2123344983E-03       5    8    1         0.1171481506E-01      0.1171521887E-01
          0                 6           1             5    8     1       0.8742940694E-04       5    8    1         0.4823581033E-02      0.4823715292E-02

    ------------------------------------------------
       NWT REQUIRED            6 OUTER ITERATIONS 
       AND A TOTAL OF          9 INNER ITERATIONS.
    ------------------------------------------------

 NO OUTPUT CONTROL FOR STRESS PERIOD   46   TIME STEP   26
 
 SOLVING FOR HEAD 
                                                   Max.-Head-Change                         Max.-Flux-Residual
  Residual-Control   Outer-Iter.   Inner-Iter.     Column Row Layer    Maximum-Head-Change  Column Row Layer    Maximum-Flux-Residual          L2-NORM 
          0                 1           2             5    8     1       0.4376436847E+00       5    8    1         0.2405436877E+02      0.2760316501E+02
          0                 2           2             5    8     1       0.1934821660E+00       5    8    1         0.1068716610E+02      0.1077255581E+02
          0                 3           2             5    8     1       0.8553670123E-01       5    8    1         0.4719607646E+01      0.4720615271E+01
          0                 4           2             5    8     1       0.3781509829E-01       5    8    1         0.2086794827E+01      0.2086803716E+01
          0                 5           2             5    8     1       0.1671775844E-01       5    8    1         0.9225561398E+00      0.9225599592E+00
          0                 6           2             5    8     1       0.7390790954E-02       5    8    1         0.4078555856E+00      0.4078572314E+00
          0                 7           1             5    8     1       0.3267411378E-02       5    8    1         0.1803100272E+00      0.1803107537E+00
          0                 8           1             5    8     1       0.1444497275E-02       5    8    1         0.7971370139E-01      0.7971402262E-01
          0                 9           1             5    8     1       0.6386010695E-03       5    8    1         0.3524081886E-01      0.3524096096E-01
          0                10           1             5    8     1       0.2823205937E-03       5    8    1         0.1557969513E-01      0.1557975784E-01
                                                   Max.-Head-Change                         Max.-Flux-Residual
  Residual-Control   Outer-Iter.   Inner-Iter.     Column Row Layer    Maximum-Head-Change  Column Row Layer    Maximum-Flux-Residual          L2-NORM 
          0                11           1             5    8     1       0.1248117508E-03       5    8    1         0.6887663143E-02      0.6887690877E-02
          0                12           1             5    8     1       0.5517831023E-04       5    8    1         0.3044982736E-02      0.3044995044E-02

    ------------------------------------------------
       NWT REQUIRED           12 OUTER ITERATIONS 
       AND A TOTAL OF         18 INNER ITERATIONS.
    ------------------------------------------------

 NO OUTPUT CONTROL FOR STRESS PERIOD   46   TIME STEP   27
 
 SOLVING FOR HEAD 
                                                   Max.-Head-Change                         Max.-Flux-Residual
  Residual-Control   Outer-Iter.   Inner-Iter.     Column Row Layer    Maximum-Head-Change  Column Row Layer    Maximum-Flux-Residual          L2-NORM 
          0                 1           2             5    8     1       0.4110279950E+00       5    8    1         0.2255180820E+02      0.2624275569E+02
          0                 2           2             5    8     1       0.1757469810E+00       5    8    1         0.9712942587E+01      0.9805179460E+01
          0                 3           2             5    8     1       0.7514445545E-01       5    8    1         0.4146237314E+01      0.4147376043E+01
          0                 4           2             5    8     1       0.3212977486E-01       5    8    1         0.1773226745E+01      0.1773233907E+01
          0                 5           2             5    8     1       0.1373784798E-01       5    8    1         0.7581769431E+00      0.7581803729E+00
          0                 6           1             5    8     1       0.5873945016E-02       5    8    1         0.3241774863E+00      0.3241788774E+00
          0                 7           1             5    8     1       0.2511545841E-02       5    8    1         0.1386099768E+00      0.1386105728E+00
          0                 8           1             5    8     1       0.1073871628E-02       5    8    1         0.5926603847E-01      0.5926629315E-01
          0                 9           1             5    8     1       0.4591595676E-03       5    8    1         0.2534062059E-01      0.2534072943E-01
          0                10           1             5    8     1       0.1963246870E-03       5    8    1         0.1083499108E-01      0.1083503760E-01
          0                11           1             5    8     1       0.8394332958E-04       5    8    1         0.4632760580E-02      0.4632780460E-02

    ------------------------------------------------
       NWT REQUIRED           11 OUTER ITERATIONS 
       AND A TOTAL OF         16 INNER ITERATIONS.
    ------------------------------------------------

 NO OUTPUT CONTROL FOR STRESS PERIOD   46   TIME STEP   28
 
 SOLVING FOR HEAD 
                                                   Max.-Head-Change                         Max.-Flux-Residual
  Residual-Control   Outer-Iter.   Inner-Iter.     Column Row Layer    Maximum-Head-Change  Column Row Layer    Maximum-Flux-Residual          L2-NORM 
          0                 1           2             4    8     1       0.3700556681E+00       4    8    1         0.1983160107E+02      0.3072052680E+02
          0                 2           2             4    7     1      -0.1866208659E+01       5    6    1        -0.1005951347E+03      0.2366410267E+03
          0                 3           2             5    8     1      -0.3474052071E+00       5    8    1        -0.1935395207E+02      0.2987025025E+02
          0                 4           2             5    8     1       0.2366182178E-01       5    8    1         0.1354515926E+01      0.1989747661E+01
          0                 5           2             5    8     1      -0.9417646852E-03       5    8    1        -0.5539108863E-01      0.7882500469E-01
          0                 6           1             5    8     1       0.1162096200E-04       5    8    1         0.7009442531E-03      0.1010088968E-02

    ------------------------------------------------
       NWT REQUIRED            6 OUTER ITERATIONS 
       AND A TOTAL OF         11 INNER ITERATIONS.
    ------------------------------------------------

 NO OUTPUT CONTROL FOR STRESS PERIOD   46   TIME STEP   29
 
 SOLVING FOR HEAD 
                                                   Max.-Head-Change                         Max.-Flux-Residual
  Residual-Control   Outer-Iter.   Inner-Iter.     Column Row Layer    Maximum-Head-Change  Column Row Layer    Maximum-Flux-Residual          L2-NORM 
          0                 1           2             5    6     1       0.1567130079E+00       5    6    1         0.8521255772E+01      0.1837327242E+02
          0                 2           2             5    6     1      -0.4935275502E-01       5    6    1        -0.2727098957E+01      0.6249588357E+01
          0                 3           2             4    8     1       0.1281587019E-01       5    6    1         0.7221714607E+00      0.1736735921E+01
          0                 4           2             4    8     1      -0.5099564194E-03       5    6    1        -0.2953689067E-01      0.7125440103E-01
          0                 5           1             4    8     1       0.6287972189E-05       5    6    1         0.3743233849E-03      0.9422980205E-03

    ------------------------------------------------
       NWT REQUIRED            5 OUTER ITERATIONS 
       AND A TOTAL OF          9 INNER ITERATIONS.
    ------------------------------------------------

 NO OUTPUT CONTROL FOR STRESS PERIOD   46   TIME STEP   30



 STREAM LISTING     PERIOD     46   STEP       30

 LAYER ROW COL. STREAM  RCH.  FLOW INTO     FLOW TO   FLOW OUT OF   OVRLND.     DIRECT     STREAM       STREAM     STREAM     STREAM   STREAMBED  STREAMBED
                SEG.NO.  NO.  STRM. RCH.    AQUIFER    STRM. RCH.    RUNOFF     PRECIP       ET          HEAD       DEPTH      WIDTH   CONDCTNC.   GRADIENT

   1    1    1     1     1    1.8749E+01  2.1264E-01   1.8537E+01  0.000E+00  0.000E+00  0.000E+00  1.09413E+03  1.078E+00  1.159E+01  5.215E-02  1.359E+00
   1    2    2     1     2    1.8537E+01  3.2801E-01   1.8209E+01  0.000E+00  0.000E+00  0.000E+00  1.08913E+03  1.073E+00  1.150E+01  8.053E-02  1.358E+00
   1    3    3     1     3    1.8209E+01  2.7848E-01   1.7930E+01  0.000E+00  0.000E+00  0.000E+00  1.08349E+03  1.068E+00  1.141E+01  6.845E-02  1.356E+00
   1    3    4     1     4    1.7930E+01  2.5541E-01   1.7675E+01  0.000E+00  0.000E+00  0.000E+00  1.07847E+03  1.064E+00  1.132E+01  6.285E-02  1.355E+00
   1    4    5     2     1    1.5675E+01  3.0476E-01   1.5370E+01  0.000E+00  0.000E+00  0.000E+00  1.07284E+03  9.072E-01  1.200E+01  7.800E-02  1.302E+00
   1    5    6     2     2    1.5370E+01  2.3387E-01   1.5136E+01  0.000E+00  0.000E+00  0.000E+00  1.06741E+03  8.978E-01  1.200E+01  6.000E-02  1.299E+00
   1    6    6     2     3    1.5136E+01  2.3337E-01   1.4903E+01  0.000E+00  0.000E+00  0.000E+00  1.06268E+03  8.895E-01  1.200E+01  6.000E-02  1.296E+00
   1    7    6     2     4    1.4903E+01  2.3287E-01   1.4670E+01  0.000E+00  0.000E+00  0.000E+00  1.05796E+03  8.812E-01  1.200E+01  6.000E-02  1.294E+00
   1    8    6     2     5    1.4670E+01  2.3237E-01   1.4438E+01  0.000E+00  0.000E+00  0.000E+00  1.05323E+03  8.728E-01  1.200E+01  6.000E-02  1.291E+00
   1    3    5     3     1    2.0000E+00  2.8252E-01   1.7175E+00  0.000E+00  0.000E+00  0.000E+00  1.07555E+03  1.909E+00  9.636E+00  7.227E-02  1.955E+00
   1    3    6     3     2    1.7175E+00  2.4905E-01   1.4684E+00  0.000E+00  0.000E+00  0.000E+00  1.07264E+03  1.727E+00  8.909E+00  6.682E-02  1.864E+00
   1    3    7     3     3    1.4684E+00  1.9718E-01   1.2712E+00  0.000E+00  0.000E+00  0.000E+00  1.06987E+03  1.555E+00  8.218E+00  5.547E-02  1.777E+00
   1    4    8     3     4    1.2712E+00  2.2567E-01   1.0456E+00  0.000E+00  0.000E+00  0.000E+00  1.06682E+03  1.364E+00  7.455E+00  6.709E-02  1.682E+00
   1    5    8     3     5    1.0456E+00  1.5790E-01   8.8768E-01  0.000E+00  0.000E+00  0.000E+00  1.06362E+03  1.164E+00  6.655E+00  4.991E-02  1.582E+00
   1    6    8     3     6    8.8768E-01  5.5980E-02   8.3170E-01  0.000E+00  0.000E+00  0.000E+00  1.06158E+03  1.036E+00  6.145E+00  1.844E-02  1.518E+00
   1    5   10     4     1    1.0000E+01  9.0919E-02   9.9091E+00  0.000E+00  0.000E+00  0.000E+00  1.07836E+03  6.368E-01  1.000E+01  2.500E-02  1.212E+00
   1    5    9     4     2    9.9091E+00  1.8158E-01   9.7275E+00  0.000E+00  0.000E+00  0.000E+00  1.07154E+03  6.315E-01  1.000E+01  5.000E-02  1.211E+00
   1    6    8     4     3    9.7275E+00  1.2689E-01   9.6006E+00  0.000E+00  0.000E+00  0.000E+00  1.06381E+03  6.256E-01  1.000E+01  3.500E-02  1.209E+00
   1    6    8     5     1    1.0432E+01  2.2686E-01   1.0205E+01  0.000E+00  0.000E+00  0.000E+00  1.05868E+03  6.790E-01  1.542E+01  6.166E-02  1.226E+00
   1    7    7     5     2    1.0205E+01  2.7894E-01   9.9265E+00  0.000E+00  0.000E+00  0.000E+00  1.05417E+03  6.732E-01  1.519E+01  7.594E-02  1.224E+00
   1    8    7     5     3    9.9265E+00  1.9221E-01   9.7343E+00  0.000E+00  0.000E+00  0.000E+00  1.04992E+03  6.676E-01  1.497E+01  5.241E-02  1.223E+00
   1    8    6     5     4    9.7343E+00  1.3577E-01   9.5985E+00  0.000E+00  0.000E+00  0.000E+00  1.04691E+03  6.637E-01  1.482E+01  3.706E-02  1.221E+00
   1    9    6     6     1    9.5985E+00  2.2097E-01   9.3776E+00  0.000E+00  0.000E+00  0.000E+00  1.04341E+03  6.828E-01  1.200E+01  6.000E-02  1.228E+00
   1   10    7     6     2    9.3776E+00  2.2039E-01   9.1572E+00  0.000E+00  0.000E+00  0.000E+00  1.03885E+03  6.732E-01  1.200E+01  6.000E-02  1.224E+00
   1   11    7     6     3    9.1572E+00  2.1981E-01   8.9374E+00  0.000E+00  0.000E+00  0.000E+00  1.03430E+03  6.636E-01  1.200E+01  6.000E-02  1.221E+00
   1   12    7     6     4    8.9374E+00  2.1923E-01   8.7181E+00  0.000E+00  0.000E+00  0.000E+00  1.02974E+03  6.539E-01  1.200E+01  6.000E-02  1.218E+00
   1   13    7     6     5    8.7181E+00 -5.3744E-02   8.7719E+00  0.000E+00  0.000E+00  0.000E+00  1.02656E+03  6.502E-01  1.200E+01  2.400E-01 -7.464E-02
   1   14    9     7     1    1.5000E+02  1.3768E+00   1.4862E+02  0.000E+00  0.000E+00  0.000E+00  1.03987E+03  2.288E+00  5.529E+01  5.593E-01  8.205E-01
   1   13    8     7     2    1.4862E+02  1.9395E+00   1.4668E+02  0.000E+00  0.000E+00  0.000E+00  1.03478E+03  2.279E+00  5.525E+01  6.147E-01  1.052E+00
   1   13    7     7     3    1.4668E+02  1.6224E+00   1.4506E+02  0.000E+00  0.000E+00  0.000E+00  1.02969E+03  2.269E+00  5.521E+01  5.584E-01  9.685E-01
   1   13    6     8     1    1.5383E+02  9.7432E-01   1.5286E+02  0.000E+00  0.000E+00  0.000E+00  1.02472E+03  2.840E+00  4.118E+01  4.197E-01  7.739E-01
   1   13    5     8     2    1.5286E+02  2.3726E-01   1.5262E+02  0.000E+00  0.000E+00  0.000E+00  1.01846E+03  2.836E+00  4.112E+01  4.191E-01  1.887E-01
   1   13    4     8     3    1.5262E+02 -2.3038E+00   1.5493E+02  0.000E+00  0.000E+00  0.000E+00  1.01222E+03  2.843E+00  4.123E+01  4.201E+00 -1.828E-01
   1   13    3     8     4    1.5493E+02 -3.6407E+00   1.5857E+02  0.000E+00  0.000E+00  0.000E+00  1.00599E+03  2.864E+00  4.152E+01  4.231E+00 -2.868E-01
   1   13    2     8     5    1.5857E+02 -2.6961E+00   1.6126E+02  0.000E+00  0.000E+00  0.000E+00  9.99760E+02  2.885E+00  4.184E+01  4.263E+00 -2.108E-01
   1   13    1     8     6    1.6126E+02 -2.0583E+00   1.6332E+02  0.000E+00  0.000E+00  0.000E+00  9.94776E+02  2.901E+00  4.207E+01  2.572E+00 -2.667E-01
   1    8    6     9     1    1.4438E+01  0.0000E+00   1.4438E+01  0.000E+00  0.000E+00  0.000E+00  1.08157E+03  2.825E+00  4.000E+00  0.000E+00  1.942E+00
   1    8    5     9     2    1.4438E+01  0.0000E+00   1.4438E+01  0.000E+00  0.000E+00  0.000E+00  1.08107E+03  2.825E+00  4.000E+00  0.000E+00  1.942E+00





UNSATURATED ZONE PACKAGE VOLUMETRIC BUDGET FOR  TIME STEP    30 STRESS PERIOD   46
  ------------------------------------------------------------------------------



     CUMULATIVE VOLUMES      L**3       RATES FOR THIS TIME STEP      L**3/T
     ------------------                 ------------------------

           IN:                                      IN:
           ---                                      ---
        INFILTRATION = 13141051626.6356          INFILTRATION =          23.3478

          OUT:                                     OUT:
          ----                                     ----
              UZF ET =  1705904199.0892                UZF ET =          12.0675
        UZF RECHARGE = 10620769284.6264          UZF RECHARGE =       0.0000E+00

            IN - OUT =   814378142.9200              IN - OUT =          11.2803

          STORAGE:                                 STORAGE:
          --------                                 --------
      STORAGE CHANGE =   815875374.4610        STORAGE CHANGE =          11.3392

 PERCENT DISCREPANCY IS DIFFERENCE BETWEEN IN-OUT MINUS CHANGE IN STORAGE
 DIVIDED BY THE AVERAGE OF IN AND OUT TIMES 100

 PERCENT DISCREPANCY =          -0.00     PERCENT DISCREPANCY =          -0.25






1
  VOLUMETRIC BUDGET FOR AGRICULTURAL FIELDS AT  END OF TIME STEP   30, STRESS PERIOD  46
  ------------------------------------------------------------------------------

     CUMULATIVE VOLUMES      L**3       RATES FOR THIS TIME STEP      L**3/T
     ------------------                 ------------------------

           IN:                                      IN:
           ---                                      ---
               AG WELLS  = 11826811904.0000                 AG WELLS  =           8.0624
      DIVERSION SEGMENTS =  1213874688.0000        DIVERSION SEGMENTS =          14.4376
       IRRIGATION PONDS  =           0.0000         IRRIGATION PONDS  =           0.0000
           GW IRRIGATION =           0.0000             GW IRRIGATION =           0.0000
           SW IRRIGATION =           0.0000             SW IRRIGATION =           0.0000
        SYSTEM LOSSES GW =           0.0000          SYSTEM LOSSES GW =           0.0000
        SYSTEM LOSSES SW =           0.0000          SYSTEM LOSSES SW =           0.0000

                TOTAL IN = 13040687104.0000                  TOTAL IN =          22.5000

          OUT:                                     OUT:
          ----                                     ----
               AG WELLS  =           0.0000                 AG WELLS  =           0.0000
      DIVERSION SEGMENTS =           0.0000        DIVERSION SEGMENTS =           0.0000
       IRRIGATION PONDS  =           0.0000         IRRIGATION PONDS  =           0.0000
           GW IRRIGATION = 11826811904.0000             GW IRRIGATION =           8.0624
           SW IRRIGATION =  1213894784.0000             SW IRRIGATION =          14.4379
        SYSTEM LOSSES GW =           0.0000          SYSTEM LOSSES GW =           0.0000
        SYSTEM LOSSES SW =           0.0000          SYSTEM LOSSES SW =           0.0000

               TOTAL OUT = 13040706560.0000                 TOTAL OUT =          22.5003

                IN - OUT =      -19456.0000                  IN - OUT =      -2.8801E-04

     PERCENT DISCREPANCY =          -0.00         PERCENT DISCREPANCY =          -0.00



1
  VOLUMETRIC BUDGET FOR ENTIRE MODEL AT END OF TIME STEP   30, STRESS PERIOD  46
  ------------------------------------------------------------------------------

     CUMULATIVE VOLUMES      L**3       RATES FOR THIS TIME STEP      L**3/T
     ------------------                 ------------------------

           IN:                                      IN:
           ---                                      ---
             STORAGE     = 10107955200.0000               STORAGE     =          36.4898
       CONSTANT HEAD     =           0.0000         CONSTANT HEAD     =           0.0000
     HEAD DEP BOUNDS     =    33986688.0000       HEAD DEP BOUNDS     =           0.2885
      STREAM LEAKAGE     =  1465687808.0000        STREAM LEAKAGE     =          11.7438
        UZF RECHARGE     = 10620764160.0000          UZF RECHARGE     =           0.0000
               GW ET     =           0.0000                 GW ET     =           0.0000
     SURFACE LEAKAGE     =           0.0000       SURFACE LEAKAGE     =           0.0000
           AG WELLS      =           0.0000             AG WELLS      =           0.0000

                TOTAL IN = 22228393984.0000                  TOTAL IN =          48.5221

          OUT:                                     OUT:
          ----                                     ----
             STORAGE     =  9157331968.0000               STORAGE     =          29.4191
       CONSTANT HEAD     =           0.0000         CONSTANT HEAD     =           0.0000
     HEAD DEP BOUNDS     =    34397500.0000       HEAD DEP BOUNDS     =           0.2879
      STREAM LEAKAGE     =  1208205440.0000        STREAM LEAKAGE     =          10.7527
        UZF RECHARGE     =           0.0000          UZF RECHARGE     =           0.0000
               GW ET     =     1532757.2500                 GW ET     =           0.0000
     SURFACE LEAKAGE     =           0.0000       SURFACE LEAKAGE     =           0.0000
           AG WELLS      = 11826811904.0000             AG WELLS      =           8.0624

               TOTAL OUT = 22228279296.0000                 TOTAL OUT =          48.5221

                IN - OUT =      114688.0000                  IN - OUT =       4.5776E-05

     PERCENT DISCREPANCY =           0.00         PERCENT DISCREPANCY =           0.00






         TIME SUMMARY AT END OF TIME STEP   30 IN STRESS PERIOD   46
                    SECONDS     MINUTES      HOURS       DAYS        YEARS
                    -----------------------------------------------------------
   TIME STEP LENGTH  87667.      1461.1      24.352      1.0147     2.77799E-03
 STRESS PERIOD TIME 2.63000E+06  43833.      730.56      30.440     8.33397E-02
         TOTAL TIME 1.18435E+08 1.97392E+06  32899.      1370.8      3.7530    
1
1
                            STRESS PERIOD NO.   47, LENGTH =   2630000.    
                            -----------------------------------------------

                              NUMBER OF TIME STEPS =    30

                               MULTIPLIER FOR DELT =     1.000

                            INITIAL TIME STEP SIZE =   87666.66    

 REUSING NON-PARAMETER GHB CELLS FROM LAST STRESS PERIOD

      2 GHB CELLS

 REUSING STREAM SEGMENT DATA FROM LAST STRESS PERIOD



            AREAL INFILTRATION RATE
 READING ON UNIT   19 WITH FORMAT: (FREE)              

            1           2           3           4           5           6           7           8           9          10
 ........................................................................................................................
   1   1.0000E-10  2.0000E-10   0.000       0.000       0.000       0.000       0.000       0.000       0.000       0.000    
   2   2.0000E-10  1.0000E-10  2.0000E-10   0.000       0.000      8.0000E-10  8.0000E-10  5.0000E-10   0.000       0.000    
   3    0.000      5.0000E-10  1.0000E-10  1.0000E-10  8.0000E-10  8.0000E-10  5.0000E-10  5.0000E-10   0.000       0.000    
   4   8.0000E-10  5.0000E-10  1.0000E-10  1.0000E-10  1.0000E-10  1.0000E-10  1.0000E-10  1.0000E-10  2.0000E-10   0.000    
   5   8.0000E-10  5.0000E-10  1.0000E-10  1.0000E-10  1.0000E-10  1.0000E-10  1.0000E-10  1.0000E-10  1.0000E-10  1.0000E-10
   6   8.0000E-10  5.0000E-10  5.0000E-10  2.0000E-10  2.0000E-10  1.0000E-10  1.0000E-10  1.0000E-10  1.0000E-10  5.0000E-10
   7   8.0000E-10  5.0000E-10  5.0000E-10  2.0000E-10  2.0000E-10  1.0000E-10  1.0000E-10  2.0000E-10  2.0000E-10   0.000    
   8    0.000      5.0000E-10  5.0000E-10  2.0000E-10  2.0000E-10  1.0000E-10  1.0000E-10  2.0000E-10  5.0000E-10   0.000    
   9    0.000      5.0000E-10  5.0000E-10  2.0000E-10  2.0000E-10  1.0000E-10  1.0000E-10  2.0000E-10  5.0000E-10   0.000    
  10    0.000      5.0000E-10  5.0000E-10  2.0000E-10  2.0000E-10  1.0000E-10  1.0000E-10  2.0000E-10  5.0000E-10  8.0000E-10
  11    0.000      1.0000E-10  1.0000E-10  1.0000E-10  1.0000E-10  1.0000E-10  1.0000E-10  2.0000E-10  5.0000E-10   0.000    
  12   1.0000E-10  1.0000E-10  1.0000E-10  1.0000E-10  1.0000E-10  1.0000E-10  1.0000E-10  1.0000E-10  2.0000E-10   0.000    
  13   1.0000E-10  1.0000E-10  2.0000E-10  2.0000E-10  2.0000E-10  2.0000E-10  2.0000E-10  1.0000E-10  1.0000E-10   0.000    
  14    0.000      2.0000E-10  5.0000E-10  5.0000E-10  5.0000E-10  5.0000E-10  5.0000E-10  2.0000E-10  1.0000E-10   0.000    
  15    0.000       0.000      8.0000E-10  8.0000E-10  8.0000E-10  8.0000E-10   0.000       0.000       0.000       0.000    

                  ET RATE =  5.000000E-09

 USING ET EXTINCTION DEPTH FROM PREVIOUS STRESS PERIOD. CURRENT PERIOD IS:      47

 USING EXTINCTION WATER CONTENT FROM PREVIOUS STRESS PERIOD. CURRENT PERIOD IS:      47

 USING AIR ENTRY PRESSURE FROM PREVIOUS STRESS PERIOD. CURRENT PERIOD IS:      47

 USING ROOT PRESSURE HEAD FROM PREVIOUS STRESS PERIOD. CURRENT PERIOD IS:      47

 USING ROOT ACTIVITY FROM PREVIOUS STRESS PERIOD. CURRENT PERIOD IS:      47

 PROCESSING AG STRESS PERIOD DATA

 READING AG STRESS PERIOD DATA

 READING IRRIGATION SEGMENT

 READING IRRIGATION WELL

 READING SUPPLEMENTAL WELL

 NO IRRPOND OR REUSING IRRPOND DATA FROM LAST STRESS PERIOD

 END PROCESSING AG STRESS PERIOD DATA OPTIONS
 
 SOLVING FOR HEAD 
                                                   Max.-Head-Change                         Max.-Flux-Residual
  Residual-Control   Outer-Iter.   Inner-Iter.     Column Row Layer    Maximum-Head-Change  Column Row Layer    Maximum-Flux-Residual          L2-NORM 
          0                 1           2             4    8     1       0.1949251494E+00       4    8    1         0.1051855560E+02      0.1929075943E+02
          0                 2           2             4    8     1       0.8506899988E-01       4    8    1         0.4624108193E+01      0.4882126284E+01
          0                 3           2             4    8     1       0.3727949842E-01       4    8    1         0.2022016191E+01      0.2025270892E+01
          0                 4           2             4    8     1       0.1628962344E-01       4    8    1         0.8832902869E+00      0.8838697169E+00
          0                 5           2             4    8     1       0.7119926229E-02       4    8    1         0.3859884084E+00      0.3864959661E+00
          0                 6           2             4    8     1       0.3112835073E-02       4    8    1         0.1687176658E+00      0.1690830137E+00
          0                 7           2             4    8     1       0.1361275273E-02       4    8    1         0.7376712936E-01      0.7400003292E-01
          0                 8           2             4    8     1       0.5954406165E-03       4    8    1         0.3226062911E-01      0.3239802226E-01
          0                 9           2             4    8     1       0.2605117946E-03       4    8    1         0.1411185933E-01      0.1418866656E-01
          0                10           2             4    8     1       0.1140005318E-03       4    8    1         0.6174345267E-02      0.6215623807E-02
          0                11           1             4    8     1       0.4989664654E-04       4    8    1         0.2702010588E-02      0.2723537987E-02

    ------------------------------------------------
       NWT REQUIRED           11 OUTER ITERATIONS 
       AND A TOTAL OF         21 INNER ITERATIONS.
    ------------------------------------------------

 NO OUTPUT CONTROL FOR STRESS PERIOD   47   TIME STEP    1
 
 SOLVING FOR HEAD 
                                                   Max.-Head-Change                         Max.-Flux-Residual
  Residual-Control   Outer-Iter.   Inner-Iter.     Column Row Layer    Maximum-Head-Change  Column Row Layer    Maximum-Flux-Residual          L2-NORM 
          0                 1           2             5    7     1       0.4206378764E+00       5    7    1         0.2268389225E+02      0.4108824434E+02
          0                 2           2             5    7     1       0.1836908218E+00       5    7    1         0.9919524153E+01      0.1719342490E+02
          0                 3           2             5    7     1       0.7776232903E-01       5    7    1         0.4195289489E+01      0.7354939672E+01
          0                 4           2             5    7     1       0.3294503892E-01       5    7    1         0.1776315770E+01      0.3153393208E+01
          0                 5           2             5    7     1       0.1396815527E-01       5    7    1         0.7526771762E+00      0.1352536790E+01
          0                 6           2             5    7     1       0.5926609841E-02       5    7    1         0.3191685304E+00      0.5802852167E+00
          0                 7           2             4    8     1       0.2522924756E-02       5    7    1         0.1354403421E+00      0.2490305526E+00
          0                 8           2             4    8     1       0.1077308670E-02       4    8    1         0.5772436074E-01      0.1068988091E+00
          0                 9           2             4    8     1       0.4600716423E-03       4    8    1         0.2464932205E-01      0.4589812882E-01
          0                10           2             4    8     1       0.1964975547E-03       4    8    1         0.1052687876E-01      0.1971115859E-01
          0                11           1             4    8     1       0.8393286081E-04       4    8    1         0.4496142289E-02      0.8466779701E-02

    ------------------------------------------------
       NWT REQUIRED           11 OUTER ITERATIONS 
       AND A TOTAL OF         21 INNER ITERATIONS.
    ------------------------------------------------

 NO OUTPUT CONTROL FOR STRESS PERIOD   47   TIME STEP    2
 
 SOLVING FOR HEAD 
                                                   Max.-Head-Change                         Max.-Flux-Residual
  Residual-Control   Outer-Iter.   Inner-Iter.     Column Row Layer    Maximum-Head-Change  Column Row Layer    Maximum-Flux-Residual          L2-NORM 
          0                 1           2             5    8     1       0.4102797311E+00       5    8    1         0.2213635686E+02      0.4429342139E+02
          0                 2           2             5    8     1       0.1866676409E+00       5    8    1         0.1006076022E+02      0.1905871924E+02
          0                 3           2             5    8     1       0.8479864253E-01       5    8    1         0.4578225476E+01      0.8353284473E+01
          0                 4           2             5    8     1       0.3846868952E-01       5    8    1         0.2079067494E+01      0.3669222660E+01
          0                 5           2             5    8     1       0.1742937773E-01       5    8    1         0.9429445682E+00      0.1613785773E+01
          0                 6           2             5    8     1       0.7887930267E-02       5    8    1         0.4271336105E+00      0.7105610618E+00
          0                 7           2             5    8     1       0.3566118868E-02       5    8    1         0.1932669460E+00      0.3131901037E+00
          0                 8           2             5    8     1       0.1610720034E-02       5    8    1         0.8735960005E-01      0.1381746508E+00
          0                 9           2             5    8     1       0.7268945931E-03       5    8    1         0.3945137779E-01      0.6101384606E-01
          0                10           2             5    8     1       0.3277795639E-03       5    8    1         0.1780111053E-01      0.2696348705E-01
                                                   Max.-Head-Change                         Max.-Flux-Residual
  Residual-Control   Outer-Iter.   Inner-Iter.     Column Row Layer    Maximum-Head-Change  Column Row Layer    Maximum-Flux-Residual          L2-NORM 
          0                11           1             5    8     1       0.1476998463E-03       5    8    1         0.8025954568E-02      0.1192453864E-01
          0                12           1             5    8     1       0.6651074143E-04       5    8    1         0.3616088875E-02      0.5277126199E-02

    ------------------------------------------------
       NWT REQUIRED           12 OUTER ITERATIONS 
       AND A TOTAL OF         22 INNER ITERATIONS.
    ------------------------------------------------

 NO OUTPUT CONTROL FOR STRESS PERIOD   47   TIME STEP    3
 
 SOLVING FOR HEAD 
                                                   Max.-Head-Change                         Max.-Flux-Residual
  Residual-Control   Outer-Iter.   Inner-Iter.     Column Row Layer    Maximum-Head-Change  Column Row Layer    Maximum-Flux-Residual          L2-NORM 
          0                 1           2             4    6     1       0.3814167211E+00       5    8    1         0.2040571075E+02      0.4737184568E+02
          0                 2           2             4    8     1       0.1720229936E+00       4    8    1         0.9091952111E+01      0.2099431971E+02
          0                 3           2             4    8     1       0.8004245162E-01       4    8    1         0.4237148140E+01      0.9397220576E+01
          0                 4           2             4    8     1       0.3719163340E-01       4    8    1         0.1970925264E+01      0.4214289353E+01
          0                 5           2             4    8     1       0.1725934532E-01       4    8    1         0.9155724238E+00      0.1893604315E+01
          0                 6           2             4    8     1       0.8000417102E-02       4    8    1         0.4247923592E+00      0.8522805373E+00
          0                 7           2             4    8     1       0.3704744734E-02       4    8    1         0.1968701149E+00      0.3841817291E+00
          0                 8           2             4    8     1       0.1713971240E-02       4    8    1         0.9114825828E-01      0.1734134877E+00
          0                 9           2             4    8     1       0.7922925631E-03       4    8    1         0.4216225088E-01      0.7837150593E-01
          0                10           2             4    8     1       0.3659631601E-03       4    8    1         0.1948688463E-01      0.3545723413E-01
                                                   Max.-Head-Change                         Max.-Flux-Residual
  Residual-Control   Outer-Iter.   Inner-Iter.     Column Row Layer    Maximum-Head-Change  Column Row Layer    Maximum-Flux-Residual          L2-NORM 
          0                11           2             4    8     1       0.1689227439E-03       4    8    1         0.8999874691E-02      0.1605721754E-01
          0                12           1             4    8     1       0.7792266330E-04       4    8    1         0.4153694312E-02      0.7277915599E-02

    ------------------------------------------------
       NWT REQUIRED           12 OUTER ITERATIONS 
       AND A TOTAL OF         23 INNER ITERATIONS.
    ------------------------------------------------

 NO OUTPUT CONTROL FOR STRESS PERIOD   47   TIME STEP    4
 
 SOLVING FOR HEAD 
                                                   Max.-Head-Change                         Max.-Flux-Residual
  Residual-Control   Outer-Iter.   Inner-Iter.     Column Row Layer    Maximum-Head-Change  Column Row Layer    Maximum-Flux-Residual          L2-NORM 
          0                 1           2             5    7     1       0.4524924238E+00       5    7    1         0.2404814672E+02      0.5224988227E+02
          0                 2           2             5    7     1       0.2096252597E+00       5    7    1         0.1113240481E+02      0.2380981178E+02
          0                 3           2             5    7     1       0.9709099737E-01       5    7    1         0.5158036944E+01      0.1088403669E+02
          0                 4           2             5    7     1       0.4495899236E-01       5    7    1         0.2388869490E+01      0.4979483129E+01
          0                 5           2             5    7     1       0.2081400782E-01       5    7    1         0.1106152583E+01      0.2280110151E+01
          0                 6           2             5    7     1       0.9633779181E-02       5    7    1         0.5120787074E+00      0.1044825062E+01
          0                 7           2             5    7     1       0.4458004999E-02       5    7    1         0.2370066049E+00      0.4790858935E+00
          0                 8           2             5    7     1       0.2062476420E-02       5    7    1         0.1096698265E+00      0.2198023642E+00
          0                 9           2             4    7     1       0.9578887866E-03       5    7    1         0.5073629255E-01      0.1008955581E+00
          0                10           2             4    7     1       0.4477797548E-03       4    7    1         0.2361090846E-01      0.4633480794E-01
                                                   Max.-Head-Change                         Max.-Flux-Residual
  Residual-Control   Outer-Iter.   Inner-Iter.     Column Row Layer    Maximum-Head-Change  Column Row Layer    Maximum-Flux-Residual          L2-NORM 
          0                11           2             4    7     1       0.2091247011E-03       4    7    1         0.1103530202E-01      0.2128708970E-01
          0                12           1             4    7     1       0.9758302453E-04       4    7    1         0.5152931042E-02      0.9783166485E-02

    ------------------------------------------------
       NWT REQUIRED           12 OUTER ITERATIONS 
       AND A TOTAL OF         23 INNER ITERATIONS.
    ------------------------------------------------

 NO OUTPUT CONTROL FOR STRESS PERIOD   47   TIME STEP    5
 
 SOLVING FOR HEAD 
                                                   Max.-Head-Change                         Max.-Flux-Residual
  Residual-Control   Outer-Iter.   Inner-Iter.     Column Row Layer    Maximum-Head-Change  Column Row Layer    Maximum-Flux-Residual          L2-NORM 
          0                 1           2             4    7     1       0.4996295727E+00       4    7    1         0.2633147417E+02      0.5232958918E+02
          0                 2           2             4    7     1       0.2271166963E+00       4    7    1         0.1196206565E+02      0.2388832770E+02
          0                 3           2             4    7     1       0.1028854522E+00       4    7    1         0.5417047144E+01      0.1092496410E+02
          0                 4           2             4    7     1       0.4663104861E-01       4    7    1         0.2454173830E+01      0.4999316782E+01
          0                 5           2             4    7     1       0.2114485436E-01       4    7    1         0.1112415263E+01      0.2289036178E+01
          0                 6           2             4    7     1       0.9592571172E-02       4    7    1         0.5044685726E+00      0.1048617325E+01
          0                 7           2             4    7     1       0.4353709738E-02       4    7    1         0.2288762160E+00      0.4807206940E+00
          0                 8           2             4    7     1       0.1976840673E-02       4    6    1         0.1040462062E+00      0.2204697325E+00
          0                 9           2             4    6     1       0.9043812178E-03       4    6    1         0.4812493865E-01      0.1011546092E+00
          0                10           2             4    6     1       0.4177952576E-03       4    6    1         0.2224389731E-01      0.4642853960E-01
                                                   Max.-Head-Change                         Max.-Flux-Residual
  Residual-Control   Outer-Iter.   Inner-Iter.     Column Row Layer    Maximum-Head-Change  Column Row Layer    Maximum-Flux-Residual          L2-NORM 
          0                11           2             4    6     1       0.1928927535E-03       4    6    1         0.1027479968E-01      0.2131739677E-01
          0                12           1             4    6     1       0.8900821765E-04       4    6    1         0.4743296630E-02      0.9790857797E-02

    ------------------------------------------------
       NWT REQUIRED           12 OUTER ITERATIONS 
       AND A TOTAL OF         23 INNER ITERATIONS.
    ------------------------------------------------

 NO OUTPUT CONTROL FOR STRESS PERIOD   47   TIME STEP    6
 
 SOLVING FOR HEAD 
                                                   Max.-Head-Change                         Max.-Flux-Residual
  Residual-Control   Outer-Iter.   Inner-Iter.     Column Row Layer    Maximum-Head-Change  Column Row Layer    Maximum-Flux-Residual          L2-NORM 
          0                 1           2             4    7     1       0.4182302550E+00       5    8    1         0.2192157710E+02      0.4986751542E+02
          0                 2           2             4    7     1       0.1906630423E+00       5    8    1         0.1003114293E+02      0.2278020802E+02
          0                 3           2             4    7     1       0.8695897319E-01       5    8    1         0.4586263960E+01      0.1043176484E+02
          0                 4           2             4    8     1       0.4083780908E-01       4    8    1         0.2158315414E+01      0.4823186127E+01
          0                 5           2             4    8     1       0.1956549352E-01       4    8    1         0.1035282683E+01      0.2235006497E+01
          0                 6           2             4    8     1       0.9361581275E-02       4    8    1         0.4958837369E+00      0.1037267113E+01
          0                 7           2             4    8     1       0.4473990720E-02       4    8    1         0.2372147719E+00      0.4820654107E+00
          0                 8           2             4    8     1       0.2135888698E-02       4    8    1         0.1133445490E+00      0.2243193830E+00
          0                 9           2             4    8     1       0.1018694403E-02       4    8    1         0.5410103922E-01      0.1045005640E+00
          0                10           2             4    8     1       0.4854336291E-03       4    8    1         0.2579881343E-01      0.4873166733E-01
                                                   Max.-Head-Change                         Max.-Flux-Residual
  Residual-Control   Outer-Iter.   Inner-Iter.     Column Row Layer    Maximum-Head-Change  Column Row Layer    Maximum-Flux-Residual          L2-NORM 
          0                11           2             4    8     1       0.2311377228E-03       4    8    1         0.1229195680E-01      0.2274566791E-01
          0                12           1             4    8     1       0.1099758351E-03       4    8    1         0.5851984154E-02      0.1062524639E-01
          0                13           1             4    8     1       0.5229217097E-04       4    8    1         0.2784043918E-02      0.4967001272E-02

    ------------------------------------------------
       NWT REQUIRED           13 OUTER ITERATIONS 
       AND A TOTAL OF         24 INNER ITERATIONS.
    ------------------------------------------------

 NO OUTPUT CONTROL FOR STRESS PERIOD   47   TIME STEP    7
 
 SOLVING FOR HEAD 
                                                   Max.-Head-Change                         Max.-Flux-Residual
  Residual-Control   Outer-Iter.   Inner-Iter.     Column Row Layer    Maximum-Head-Change  Column Row Layer    Maximum-Flux-Residual          L2-NORM 
          0                 1           2             5    7     1       0.4906152219E+00       5    7    1         0.2608886253E+02      0.5521935877E+02
          0                 2           2             5    7     1       0.2334788196E+00       5    7    1         0.1242142628E+02      0.2596647418E+02
          0                 3           2             5    7     1       0.1110771751E+00       5    7    1         0.5910707617E+01      0.1220985039E+02
          0                 4           2             5    7     1       0.5221216688E-01       5    7    1         0.2777867481E+01      0.5731629877E+01
          0                 5           2             4    7     1       0.2465270818E-01       4    7    1         0.1295241184E+01      0.2682384134E+01
          0                 6           2             4    7     1       0.1189179012E-01       4    7    1         0.6257400374E+00      0.1256384135E+01
          0                 7           2             4    7     1       0.5726657379E-02       4    7    1         0.3017448327E+00      0.5889012090E+00
          0                 8           2             4    7     1       0.2753594940E-02       4    7    1         0.1452683693E+00      0.2762149514E+00
          0                 9           2             4    7     1       0.1322232375E-02       4    7    1         0.6983277693E-01      0.1296301530E+00
          0                10           2             4    7     1       0.6341330313E-03       4    7    1         0.3352486587E-01      0.6086839049E-01
                                                   Max.-Head-Change                         Max.-Flux-Residual
  Residual-Control   Outer-Iter.   Inner-Iter.     Column Row Layer    Maximum-Head-Change  Column Row Layer    Maximum-Flux-Residual          L2-NORM 
          0                11           2             4    7     1       0.3037854942E-03       4    7    1         0.1607492508E-01      0.2859435811E-01
          0                12           2             4    7     1       0.1453821898E-03       4    7    1         0.7699333770E-02      0.1343848043E-01
          0                13           1             4    7     1       0.6951066020E-04       4    7    1         0.3684021208E-02      0.6318037435E-02

    ------------------------------------------------
       NWT REQUIRED           13 OUTER ITERATIONS 
       AND A TOTAL OF         25 INNER ITERATIONS.
    ------------------------------------------------

 NO OUTPUT CONTROL FOR STRESS PERIOD   47   TIME STEP    8
 
 SOLVING FOR HEAD 
                                                   Max.-Head-Change                         Max.-Flux-Residual
  Residual-Control   Outer-Iter.   Inner-Iter.     Column Row Layer    Maximum-Head-Change  Column Row Layer    Maximum-Flux-Residual          L2-NORM 
          0                 1           2             4    7     1       0.5270879324E+00       4    7    1         0.2775465676E+02      0.5343280999E+02
          0                 2           2             4    7     1       0.2468130874E+00       4    7    1         0.1299330358E+02      0.2495016539E+02
          0                 3           2             4    7     1       0.1155951299E+00       4    7    1         0.6084588365E+01      0.1167332090E+02
          0                 4           2             4    7     1       0.5414794747E-01       4    7    1         0.2849827618E+01      0.5464648719E+01
          0                 5           2             4    7     1       0.2536819938E-01       4    7    1         0.1334977957E+01      0.2559008027E+01
          0                 6           2             4    7     1       0.1188655658E-01       4    7    1         0.6254512920E+00      0.1198695436E+01
          0                 7           2             4    7     1       0.5570253365E-02       4    7    1         0.2930692360E+00      0.5616434092E+00
          0                 8           2             4    7     1       0.2610602675E-02       4    6    1         0.1378475585E+00      0.2632196494E+00
          0                 9           2             4    6     1       0.1232086229E-02       4    6    1         0.6558663680E-01      0.1233881103E+00
          0                10           2             4    6     1       0.5856265241E-03       4    6    1         0.3118782257E-01      0.5785197914E-01
                                                   Max.-Head-Change                         Max.-Flux-Residual
  Residual-Control   Outer-Iter.   Inner-Iter.     Column Row Layer    Maximum-Head-Change  Column Row Layer    Maximum-Flux-Residual          L2-NORM 
          0                11           2             4    6     1       0.2782164571E-03       4    6    1         0.1482261125E-01      0.2712978079E-01
          0                12           2             4    6     1       0.1321117087E-03       4    6    1         0.7041244516E-02      0.1272481327E-01
          0                13           1             4    6     1       0.6270604511E-04       4    6    1         0.3343281332E-02      0.5969364590E-02

    ------------------------------------------------
       NWT REQUIRED           13 OUTER ITERATIONS 
       AND A TOTAL OF         25 INNER ITERATIONS.
    ------------------------------------------------

 NO OUTPUT CONTROL FOR STRESS PERIOD   47   TIME STEP    9
 
 SOLVING FOR HEAD 
                                                   Max.-Head-Change                         Max.-Flux-Residual
  Residual-Control   Outer-Iter.   Inner-Iter.     Column Row Layer    Maximum-Head-Change  Column Row Layer    Maximum-Flux-Residual          L2-NORM 
          0                 1           2             4    7     1       0.4592482889E+00       4    7    1         0.2419023963E+02      0.4641467142E+02
          0                 2           2             4    7     1       0.2147317345E+00       4    7    1         0.1132023517E+02      0.2113009457E+02
          0                 3           2             4    7     1       0.1003098966E+00       4    7    1         0.5292137246E+01      0.9661131637E+01
          0                 4           2             4    7     1       0.4681691504E-01       4    7    1         0.2471786980E+01      0.4422874872E+01
          0                 5           2             4    7     1       0.2183250406E-01       4    7    1         0.1153460090E+01      0.2026171289E+01
          0                 6           2             4    7     1       0.1017354643E-01       4    7    1         0.5378257639E+00      0.9288508263E+00
          0                 7           2             4    7     1       0.4737314117E-02       4    7    1         0.2505836577E+00      0.4260706829E+00
          0                 8           2             4    7     1       0.2204469819E-02       4    7    1         0.1166698750E+00      0.1955489752E+00
          0                 9           2             4    7     1       0.1025198313E-02       4    7    1         0.5428508164E-01      0.8979294010E-01
          0                10           2             4    7     1       0.4764984543E-03       4    7    1         0.2524279131E-01      0.4124950472E-01
                                                   Max.-Head-Change                         Max.-Flux-Residual
  Residual-Control   Outer-Iter.   Inner-Iter.     Column Row Layer    Maximum-Head-Change  Column Row Layer    Maximum-Flux-Residual          L2-NORM 
          0                11           2             4    7     1       0.2213511625E-03       4    7    1         0.1173133074E-01      0.1895678098E-01
          0                12           1             4    7     1       0.1027742726E-03       4    7    1         0.5449125263E-02      0.8714877092E-02
          0                13           1             4    7     1       0.4769620035E-04       4    7    1         0.2529829788E-02      0.4007672064E-02

    ------------------------------------------------
       NWT REQUIRED           13 OUTER ITERATIONS 
       AND A TOTAL OF         24 INNER ITERATIONS.
    ------------------------------------------------

 NO OUTPUT CONTROL FOR STRESS PERIOD   47   TIME STEP   10
 
 SOLVING FOR HEAD 
                                                   Max.-Head-Change                         Max.-Flux-Residual
  Residual-Control   Outer-Iter.   Inner-Iter.     Column Row Layer    Maximum-Head-Change  Column Row Layer    Maximum-Flux-Residual          L2-NORM 
          0                 1           2             4    7     1       0.3809289670E+00       4    7    1         0.2000647641E+02      0.4008400746E+02
          0                 2           2             4    7     1       0.1729963906E+00       4    7    1         0.9091379488E+01      0.1785144460E+02
          0                 3           2             4    7     1       0.7838387717E-01       4    7    1         0.4122973064E+01      0.8009608901E+01
          0                 4           2             4    7     1       0.3553940198E-01       4    7    1         0.1870133083E+01      0.3598762436E+01
          0                 5           2             4    7     1       0.1610643923E-01       4    7    1         0.8478476917E+00      0.1617003343E+01
          0                 6           2             4    7     1       0.7296362259E-02       4    7    1         0.3842142743E+00      0.7266223642E+00
          0                 7           2             4    7     1       0.3304009533E-02       4    7    1         0.1740394861E+00      0.3265419378E+00
          0                 8           2             4    7     1       0.1495595636E-02       4    7    1         0.7880468739E-01      0.1467568452E+00
          0                 9           2             4    7     1       0.6767595461E-03       4    7    1         0.3566941558E-01      0.6596045624E-01
          0                10           2             4    7     1       0.3061333318E-03       4    7    1         0.1613945554E-01      0.2964776560E-01
                                                   Max.-Head-Change                         Max.-Flux-Residual
  Residual-Control   Outer-Iter.   Inner-Iter.     Column Row Layer    Maximum-Head-Change  Column Row Layer    Maximum-Flux-Residual          L2-NORM 
          0                11           2             4    7     1       0.1384366403E-03       4    7    1         0.7300276907E-02      0.1332664387E-01
          0                12           1             4    7     1       0.6258400718E-04       4    7    1         0.3301075418E-02      0.5990566560E-02

    ------------------------------------------------
       NWT REQUIRED           12 OUTER ITERATIONS 
       AND A TOTAL OF         23 INNER ITERATIONS.
    ------------------------------------------------

 NO OUTPUT CONTROL FOR STRESS PERIOD   47   TIME STEP   11
 
 SOLVING FOR HEAD 
                                                   Max.-Head-Change                         Max.-Flux-Residual
  Residual-Control   Outer-Iter.   Inner-Iter.     Column Row Layer    Maximum-Head-Change  Column Row Layer    Maximum-Flux-Residual          L2-NORM 
          0                 1           2             4    7     1       0.3656649270E+00       4    7    1         0.1933548030E+02      0.3486713941E+02
          0                 2           2             4    7     1       0.1646451294E+00       4    7    1         0.8713876131E+01      0.1515038671E+02
          0                 3           2             4    7     1       0.7408082505E-01       4    7    1         0.3922815161E+01      0.6681463122E+01
          0                 4           2             4    7     1       0.3282836040E-01       4    7    1         0.1738602239E+01      0.2939219033E+01
          0                 5           2             4    7     1       0.1422941992E-01       4    7    1         0.7532121180E+00      0.1283520686E+01
          0                 6           2             4    7     1       0.6171421645E-02       4    7    1         0.3265179275E+00      0.5608243439E+00
          0                 7           2             4    7     1       0.2678108548E-02       4    7    1         0.1416294037E+00      0.2451745708E+00
          0                 8           2             4    7     1       0.1162792212E-02       4    7    1         0.6146697322E-01      0.1072328352E+00
          0                 9           2             4    7     1       0.5051194976E-03       4    7    1         0.2669061415E-01      0.4692081864E-01
          0                10           2             4    7     1       0.2195291996E-03       4    7    1         0.1159553970E-01      0.2053869405E-01
          0                11           1             4    6     1       0.9622712504E-04       4    6    1         0.5134957102E-02      0.8993640365E-02

    ------------------------------------------------
       NWT REQUIRED           11 OUTER ITERATIONS 
       AND A TOTAL OF         21 INNER ITERATIONS.
    ------------------------------------------------

 NO OUTPUT CONTROL FOR STRESS PERIOD   47   TIME STEP   12
 
 SOLVING FOR HEAD 
                                                   Max.-Head-Change                         Max.-Flux-Residual
  Residual-Control   Outer-Iter.   Inner-Iter.     Column Row Layer    Maximum-Head-Change  Column Row Layer    Maximum-Flux-Residual          L2-NORM 
          0                 1           2             4    7     1       0.2906547796E+00       4    7    1         0.1528554769E+02      0.3013457147E+02
          0                 2           2             4    7     1       0.1268941012E+00       4    7    1         0.6679455436E+01      0.1270392570E+02
          0                 3           2             4    7     1       0.5537237393E-01       4    7    1         0.2915550624E+01      0.5482203548E+01
          0                 4           2             4    7     1       0.2413373451E-01       4    7    1         0.1271756955E+01      0.2372442323E+01
          0                 5           2             4    7     1       0.1051650482E-01       4    7    1         0.5543611506E+00      0.1026641476E+01
          0                 6           2             4    7     1       0.4580928951E-02       4    7    1         0.2415503064E+00      0.4442970015E+00
          0                 7           2             4    7     1       0.1994718437E-02       4    7    1         0.1052106013E+00      0.1922872353E+00
          0                 8           2             4    7     1       0.8682913474E-03       4    7    1         0.4580988549E-01      0.8322384915E-01
          0                 9           2             4    7     1       0.3778456030E-03       4    7    1         0.1993960335E-01      0.3602159424E-01
          0                10           2             4    7     1       0.1643754114E-03       4    7    1         0.8676419147E-02      0.1559170888E-01
          0                11           1             4    7     1       0.7148927115E-04       4    7    1         0.3774328334E-02      0.6748982634E-02

    ------------------------------------------------
       NWT REQUIRED           11 OUTER ITERATIONS 
       AND A TOTAL OF         21 INNER ITERATIONS.
    ------------------------------------------------

 NO OUTPUT CONTROL FOR STRESS PERIOD   47   TIME STEP   13
 
 SOLVING FOR HEAD 
                                                   Max.-Head-Change                         Max.-Flux-Residual
  Residual-Control   Outer-Iter.   Inner-Iter.     Column Row Layer    Maximum-Head-Change  Column Row Layer    Maximum-Flux-Residual          L2-NORM 
          0                 1           2             4    7     1       0.2820816005E+00       4    7    1         0.1491077763E+02      0.2740897367E+02
          0                 2           2             4    7     1       0.1223092305E+00       4    7    1         0.6474784084E+01      0.1128448327E+02
          0                 3           2             4    7     1       0.5298172150E-01       4    7    1         0.2806536471E+01      0.4803984481E+01
          0                 4           2             4    7     1       0.2293085129E-01       4    7    1         0.1215543311E+01      0.2054005473E+01
          0                 5           2             4    7     1       0.9917008785E-02       4    7    1         0.5260128569E+00      0.8785992312E+00
          0                 6           2             4    7     1       0.4285901165E-02       4    7    1         0.2274552983E+00      0.3760055038E+00
          0                 7           2             4    7     1       0.1851122096E-02       4    7    1         0.9828849437E-01      0.1609832070E+00
          0                 8           2             4    7     1       0.7990730790E-03       4    7    1         0.4244692611E-01      0.6894929894E-01
          0                 9           2             4    7     1       0.3447628879E-03       4    7    1         0.1832117122E-01      0.2954090146E-01
          0                10           2             4    7     1       0.1486820454E-03       4    7    1         0.7904004558E-02      0.1266036529E-01
          0                11           1             4    7     1       0.6409434098E-04       4    7    1         0.3408388239E-02      0.5427292818E-02

    ------------------------------------------------
       NWT REQUIRED           11 OUTER ITERATIONS 
       AND A TOTAL OF         21 INNER ITERATIONS.
    ------------------------------------------------

 NO OUTPUT CONTROL FOR STRESS PERIOD   47   TIME STEP   14
 
 SOLVING FOR HEAD 
                                                   Max.-Head-Change                         Max.-Flux-Residual
  Residual-Control   Outer-Iter.   Inner-Iter.     Column Row Layer    Maximum-Head-Change  Column Row Layer    Maximum-Flux-Residual          L2-NORM 
          0                 1           2             4    7     1       0.2549446440E+00       4    7    1         0.1350734239E+02      0.2418778721E+02
          0                 2           2             4    7     1       0.1057664048E+00       4    7    1         0.5604456786E+01      0.9622693864E+01
          0                 3           2             4    7     1       0.4391282938E-01       4    7    1         0.2325042593E+01      0.4018314716E+01
          0                 4           2             4    7     1       0.1824553956E-01       4    7    1         0.9655020402E+00      0.1682882269E+01
          0                 5           2             4    7     1       0.7586177849E-02       4    7    1         0.4012174249E+00      0.7053181912E+00
          0                 6           2             4    7     1       0.3156250597E-02       4    7    1         0.1668415129E+00      0.2958366856E+00
          0                 7           2             4    7     1       0.1313968354E-02       4    6    1         0.6960265933E-01      0.1241674533E+00
          0                 8           2             4    6     1       0.5591872685E-03       4    6    1         0.2986545202E-01      0.5214615752E-01
          0                 9           2             4    6     1       0.2396019515E-03       4    6    1         0.1280451863E-01      0.2191136752E-01
          0                10           1             4    6     1       0.1025939067E-03       4    6    1         0.5485742758E-02      0.9211432338E-02
          0                11           1             4    6     1       0.4390073338E-04       4    6    1         0.2348601335E-02      0.3874149868E-02

    ------------------------------------------------
       NWT REQUIRED           11 OUTER ITERATIONS 
       AND A TOTAL OF         20 INNER ITERATIONS.
    ------------------------------------------------

 NO OUTPUT CONTROL FOR STRESS PERIOD   47   TIME STEP   15
 
 SOLVING FOR HEAD 
                                                   Max.-Head-Change                         Max.-Flux-Residual
  Residual-Control   Outer-Iter.   Inner-Iter.     Column Row Layer    Maximum-Head-Change  Column Row Layer    Maximum-Flux-Residual          L2-NORM 
          0                 1           2             4    7     1       0.2074688516E+00       4    7    1         0.1093723070E+02      0.2134720689E+02
          0                 2           2             4    7     1       0.8649854246E-01       4    7    1         0.4566316086E+01      0.8203571912E+01
          0                 3           2             4    7     1       0.3605092365E-01       4    7    1         0.1903210915E+01      0.3377510490E+01
          0                 4           2             4    7     1       0.1502058356E-01       4    7    1         0.7932008442E+00      0.1400689153E+01
          0                 5           2             4    7     1       0.6256477318E-02       4    7    1         0.3304657558E+00      0.5808396268E+00
          0                 6           2             4    7     1       0.2605282253E-02       4    7    1         0.1376403081E+00      0.2408772663E+00
          0                 7           2             4    7     1       0.1084600989E-02       4    7    1         0.5731233303E-01      0.9989559412E-01
          0                 8           2             4    7     1       0.4514226336E-03       4    7    1         0.2385846040E-01      0.4142927654E-01
          0                 9           2             4    7     1       0.1878460143E-03       4    7    1         0.9929704392E-02      0.1718214381E-01
          0                10           1             4    7     1       0.7815065265E-04       4    7    1         0.4131777306E-02      0.7126152967E-02

    ------------------------------------------------
       NWT REQUIRED           10 OUTER ITERATIONS 
       AND A TOTAL OF         19 INNER ITERATIONS.
    ------------------------------------------------

 NO OUTPUT CONTROL FOR STRESS PERIOD   47   TIME STEP   16
 
 SOLVING FOR HEAD 
                                                   Max.-Head-Change                         Max.-Flux-Residual
  Residual-Control   Outer-Iter.   Inner-Iter.     Column Row Layer    Maximum-Head-Change  Column Row Layer    Maximum-Flux-Residual          L2-NORM 
          0                 1           2             4    7     1       0.2009935114E+00       4    7    1         0.1062770915E+02      0.2000823310E+02
          0                 2           2             4    7     1       0.8349793786E-01       4    7    1         0.4420605715E+01      0.7567012361E+01
          0                 3           2             4    7     1       0.3468556371E-01       4    7    1         0.1835922376E+01      0.3110930881E+01
          0                 4           2             4    7     1       0.1440789294E-01       4    7    1         0.7626800544E+00      0.1290071641E+01
          0                 5           2             4    7     1       0.5984532798E-02       4    7    1         0.3168026433E+00      0.5349409816E+00
          0                 6           2             4    7     1       0.2485637676E-02       4    7    1         0.1315875257E+00      0.2218314873E+00
          0                 7           2             4    7     1       0.1032340904E-02       4    7    1         0.5465351049E-01      0.9199206550E-01
          0                 8           2             4    7     1       0.4287323964E-03       4    7    1         0.2269860152E-01      0.3814937420E-01
          0                 9           2             4    7     1       0.1780440883E-03       4    7    1         0.9426663222E-02      0.1582096923E-01
          0                10           1             4    7     1       0.7393451891E-04       4    7    1         0.3914668718E-02      0.6561247397E-02

    ------------------------------------------------
       NWT REQUIRED           10 OUTER ITERATIONS 
       AND A TOTAL OF         19 INNER ITERATIONS.
    ------------------------------------------------

 NO OUTPUT CONTROL FOR STRESS PERIOD   47   TIME STEP   17
 
 SOLVING FOR HEAD 
                                                   Max.-Head-Change                         Max.-Flux-Residual
  Residual-Control   Outer-Iter.   Inner-Iter.     Column Row Layer    Maximum-Head-Change  Column Row Layer    Maximum-Flux-Residual          L2-NORM 
          0                 1           2             4    7     1       0.1932317528E+00       4    7    1         0.1027112244E+02      0.1831078174E+02
          0                 2           2             4    7     1       0.7971359399E-01       4    7    1         0.4244497475E+01      0.6673593586E+01
          0                 3           2             4    7     1       0.3287030668E-01       4    7    1         0.1750290101E+01      0.2705006713E+01
          0                 4           2             4    7     1       0.1354914249E-01       4    7    1         0.7217194229E+00      0.1109050133E+01
          0                 5           2             4    7     1       0.5583074664E-02       4    7    1         0.2974705446E+00      0.4548357831E+00
          0                 6           2             4    7     1       0.2299873337E-02       4    7    1         0.1225682887E+00      0.1866012861E+00
          0                 7           2             4    7     1       0.9471461775E-03       4    7    1         0.5048747618E-01      0.7657722051E-01
          0                 8           2             4    7     1       0.3899645102E-03       4    7    1         0.2079095243E-01      0.3143386232E-01
          0                 9           2             4    7     1       0.1605237410E-03       4    7    1         0.8559776390E-02      0.1290616077E-01
          0                10           1             4    7     1       0.6606471991E-04       4    7    1         0.3523373497E-02      0.5300136318E-02

    ------------------------------------------------
       NWT REQUIRED           10 OUTER ITERATIONS 
       AND A TOTAL OF         19 INNER ITERATIONS.
    ------------------------------------------------

 NO OUTPUT CONTROL FOR STRESS PERIOD   47   TIME STEP   18
 
 SOLVING FOR HEAD 
                                                   Max.-Head-Change                         Max.-Flux-Residual
  Residual-Control   Outer-Iter.   Inner-Iter.     Column Row Layer    Maximum-Head-Change  Column Row Layer    Maximum-Flux-Residual          L2-NORM 
          0                 1           2             4    7     1       0.1527819427E+00       4    7    1         0.8083805800E+01      0.1620792959E+02
          0                 2           2             4    7     1       0.6042749114E-01       4    7    1         0.3201104153E+01      0.5538332256E+01
          0                 3           2             4    7     1       0.2391900889E-01       4    7    1         0.1265742585E+01      0.2186038885E+01
          0                 4           2             4    7     1       0.9475137353E-02       4    7    1         0.5011349648E+00      0.8770131760E+00
          0                 5           2             4    7     1       0.3756205463E-02       4    7    1         0.1985459773E+00      0.3520134310E+00
          0                 6           2             4    6     1       0.1511880766E-02       4    6    1         0.8084063551E-01      0.1413652621E+00
          0                 7           2             4    6     1       0.6198136329E-03       4    6    1         0.3316139293E-01      0.5679666430E-01
          0                 8           2             4    6     1       0.2539226113E-03       4    6    1         0.1359293095E-01      0.2282921682E-01
          0                 9           1             4    6     1       0.1039587287E-03       4    6    1         0.5567943252E-02      0.9179877985E-02
          0                10           1             4    6     1       0.4253620431E-04       4    6    1         0.2279287615E-02      0.3692758740E-02

    ------------------------------------------------
       NWT REQUIRED           10 OUTER ITERATIONS 
       AND A TOTAL OF         18 INNER ITERATIONS.
    ------------------------------------------------

 NO OUTPUT CONTROL FOR STRESS PERIOD   47   TIME STEP   19
 
 SOLVING FOR HEAD 
                                                   Max.-Head-Change                         Max.-Flux-Residual
  Residual-Control   Outer-Iter.   Inner-Iter.     Column Row Layer    Maximum-Head-Change  Column Row Layer    Maximum-Flux-Residual          L2-NORM 
          0                 1           2             4    7     1       0.1330803569E+00       4    7    1         0.7019855404E+01      0.1511673949E+02
          0                 2           2             4    7     1       0.5277371544E-01       4    7    1         0.2790477775E+01      0.4932672249E+01
          0                 3           2             4    7     1       0.2092362801E-01       4    7    1         0.1105947788E+01      0.1909585027E+01
          0                 4           2             4    7     1       0.8294114635E-02       4    7    1         0.4385056785E+00      0.7538408805E+00
          0                 5           2             4    7     1       0.3287140909E-02       4    7    1         0.1738149521E+00      0.2976452002E+00
          0                 6           2             4    7     1       0.1302525087E-02       4    7    1         0.6888410941E-01      0.1175429813E+00
          0                 7           2             4    7     1       0.5160331136E-03       4    7    1         0.2729422645E-01      0.4642343671E-01
          0                 8           2             4    7     1       0.2044075213E-03       4    7    1         0.1081302195E-01      0.1833644516E-01
          0                 9           1             4    7     1       0.8095580869E-04       4    7    1         0.4283038849E-02      0.7243083716E-02

    ------------------------------------------------
       NWT REQUIRED            9 OUTER ITERATIONS 
       AND A TOTAL OF         17 INNER ITERATIONS.
    ------------------------------------------------

 NO OUTPUT CONTROL FOR STRESS PERIOD   47   TIME STEP   20
 
 SOLVING FOR HEAD 
                                                   Max.-Head-Change                         Max.-Flux-Residual
  Residual-Control   Outer-Iter.   Inner-Iter.     Column Row Layer    Maximum-Head-Change  Column Row Layer    Maximum-Flux-Residual          L2-NORM 
          0                 1           2             4    7     1       0.1286889462E+00       4    7    1         0.6816607896E+01      0.1397287914E+02
          0                 2           2             4    7     1       0.5077107974E-01       4    7    1         0.2695554809E+01      0.4373460011E+01
          0                 3           2             4    7     1       0.2003181362E-01       4    7    1         0.1062885129E+01      0.1685859423E+01
          0                 4           2             4    7     1       0.7904093323E-02       4    7    1         0.4194075443E+00      0.6657208084E+00
          0                 5           2             4    7     1       0.3118965279E-02       4    7    1         0.1654893020E+00      0.2629279199E+00
          0                 6           2             4    7     1       0.1230820406E-02       4    7    1         0.6530317995E-01      0.1038536844E+00
          0                 7           2             4    7     1       0.4857396180E-03       4    7    1         0.2577054731E-01      0.4102207813E-01
          0                 8           2             4    7     1       0.1917061775E-03       4    7    1         0.1017038659E-01      0.1620412378E-01
          0                 9           1             4    7     1       0.7566438443E-04       4    7    1         0.4013976382E-02      0.6400948636E-02

    ------------------------------------------------
       NWT REQUIRED            9 OUTER ITERATIONS 
       AND A TOTAL OF         17 INNER ITERATIONS.
    ------------------------------------------------

 NO OUTPUT CONTROL FOR STRESS PERIOD   47   TIME STEP   21
 
 SOLVING FOR HEAD 
                                                   Max.-Head-Change                         Max.-Flux-Residual
  Residual-Control   Outer-Iter.   Inner-Iter.     Column Row Layer    Maximum-Head-Change  Column Row Layer    Maximum-Flux-Residual          L2-NORM 
          0                 1           2             4    7     1       0.1241066225E+00       4    7    1         0.6570329028E+01      0.1374025851E+02
          0                 2           2             4    7     1       0.4898974703E-01       4    7    1         0.2599929546E+01      0.4276145183E+01
          0                 3           2             4    7     1       0.1933976401E-01       4    7    1         0.1025701008E+01      0.1647491850E+01
          0                 4           2             4    7     1       0.7635353748E-02       4    7    1         0.4049641525E+00      0.6507562104E+00
          0                 5           2             4    7     1       0.3014647460E-02       4    7    1         0.1598810280E+00      0.2570918692E+00
          0                 6           2             4    7     1       0.1190340048E-02       4    7    1         0.6312635772E-01      0.1015780259E+00
          0                 7           2             4    7     1       0.4700355478E-03       4    7    1         0.2492588876E-01      0.4013483063E-01
          0                 8           2             4    7     1       0.1856152692E-03       4    7    1         0.9842724767E-02      0.1585823878E-01
          0                 9           1             4    7     1       0.7330243303E-04       4    7    1         0.3886896616E-02      0.6266124369E-02

    ------------------------------------------------
       NWT REQUIRED            9 OUTER ITERATIONS 
       AND A TOTAL OF         17 INNER ITERATIONS.
    ------------------------------------------------

 NO OUTPUT CONTROL FOR STRESS PERIOD   47   TIME STEP   22
 
 SOLVING FOR HEAD 
                                                   Max.-Head-Change                         Max.-Flux-Residual
  Residual-Control   Outer-Iter.   Inner-Iter.     Column Row Layer    Maximum-Head-Change  Column Row Layer    Maximum-Flux-Residual          L2-NORM 
          0                 1           2             4    7     1       0.1191052546E+00       4    7    1         0.6338647424E+01      0.1281297184E+02
          0                 2           2             4    7     1       0.4668008473E-01       4    7    1         0.2491839053E+01      0.3762459503E+01
          0                 3           2             4    7     1       0.1828786339E-01       4    7    1         0.9758968865E+00      0.1421056634E+01
          0                 4           2             4    7     1       0.7162207840E-02       4    7    1         0.3823388837E+00      0.5541152403E+00
          0                 5           2             4    7     1       0.2804158176E-02       4    7    1         0.1497266047E+00      0.2162304363E+00
          0                 6           2             4    7     1       0.1097606709E-02       4    7    1         0.5861785027E-01      0.8442018461E-01
          0                 7           2             4    7     1       0.4295312631E-03       4    7    1         0.2294310424E-01      0.3297103033E-01
          0                 8           2             4    7     1       0.1680583186E-03       4    7    1         0.8978034374E-02      0.1288133020E-01
          0                 9           1             4    7     1       0.6574373665E-04       4    7    1         0.3512612154E-02      0.5034017255E-02

    ------------------------------------------------
       NWT REQUIRED            9 OUTER ITERATIONS 
       AND A TOTAL OF         17 INNER ITERATIONS.
    ------------------------------------------------

 NO OUTPUT CONTROL FOR STRESS PERIOD   47   TIME STEP   23
 
 SOLVING FOR HEAD 
                                                   Max.-Head-Change                         Max.-Flux-Residual
  Residual-Control   Outer-Iter.   Inner-Iter.     Column Row Layer    Maximum-Head-Change  Column Row Layer    Maximum-Flux-Residual          L2-NORM 
          0                 1           2             4    7     1       0.9951784507E-01       4    7    1         0.5293897748E+01      0.1181570652E+02
          0                 2           2             4    7     1       0.3703130427E-01       4    7    1         0.1972620017E+01      0.3168793530E+01
          0                 3           2             4    7     1       0.1378945643E-01       4    7    1         0.7331981092E+00      0.1151257570E+01
          0                 4           2             4    7     1       0.5141226214E-02       4    7    1         0.2731370489E+00      0.4371486803E+00
          0                 5           2             4    7     1       0.1919160434E-02       4    7    1         0.1018608791E+00      0.1662696097E+00
          0                 6           2             4    7     1       0.7172404141E-03       4    7    1         0.3803321917E-01      0.6331130518E-01
          0                 7           2             4    7     1       0.2683559171E-03       4    7    1         0.1421750011E-01      0.2412953754E-01
          0                 8           1             4    6     1       0.1037156298E-03       4    6    1         0.5539972595E-02      0.9204216522E-02
          0                 9           1             4    6     1       0.4054963132E-04       4    6    1         0.2167766650E-02      0.3513694026E-02

    ------------------------------------------------
       NWT REQUIRED            9 OUTER ITERATIONS 
       AND A TOTAL OF         16 INNER ITERATIONS.
    ------------------------------------------------

 NO OUTPUT CONTROL FOR STRESS PERIOD   47   TIME STEP   24
 
 SOLVING FOR HEAD 
                                                   Max.-Head-Change                         Max.-Flux-Residual
  Residual-Control   Outer-Iter.   Inner-Iter.     Column Row Layer    Maximum-Head-Change  Column Row Layer    Maximum-Flux-Residual          L2-NORM 
          0                 1           2             4    7     1       0.7122052363E-01       6    7    1         0.3765758601E+01      0.1086633742E+02
          0                 2           2             4    6     1       0.2668341618E-01       4    6    1         0.1436317055E+01      0.2633381830E+01
          0                 3           2             4    6     1       0.1075784267E-01       4    6    1         0.5759897063E+00      0.9865093342E+00
          0                 4           2             4    6     1       0.4198827188E-02       4    6    1         0.2250897116E+00      0.3764443281E+00
          0                 5           2             4    6     1       0.1632468462E-02       4    6    1         0.8754054986E-01      0.1432110957E+00
          0                 6           2             4    6     1       0.6320778482E-03       4    6    1         0.3390981425E-01      0.5424611287E-01
          0                 7           2             4    6     1       0.2041968705E-03       4    6    1         0.1098684628E-01      0.1586468060E-01
          0                 8           2             4    6     1       0.1255910994E-03       4    6    1         0.6720082465E-02      0.1169429301E-01
          0                 9           2             5    6     1      -0.2019476112E-03       5    6    1        -0.1116758443E-01      0.2593015160E-01
          0                10           2             4    7     1       0.1660313798E-03       4    6    1         0.9209803019E-02      0.2238842457E-01
          0                11           1             4    6     1       0.7019663998E-04       4    6    1         0.3937358549E-02      0.9112896261E-02

    ------------------------------------------------
       NWT REQUIRED           11 OUTER ITERATIONS 
       AND A TOTAL OF         21 INNER ITERATIONS.
    ------------------------------------------------

 NO OUTPUT CONTROL FOR STRESS PERIOD   47   TIME STEP   25
 
 SOLVING FOR HEAD 
                                                   Max.-Head-Change                         Max.-Flux-Residual
  Residual-Control   Outer-Iter.   Inner-Iter.     Column Row Layer    Maximum-Head-Change  Column Row Layer    Maximum-Flux-Residual          L2-NORM 
          0                 1           2             4    7     1       0.6941271559E-01       6    7    1         0.3698525011E+01      0.1055158015E+02
          0                 2           2             4    7     1       0.2603283616E-01       4    7    1         0.1378337507E+01      0.2509749797E+01
          0                 3           2             4    7     1       0.9762473051E-02       4    7    1         0.5162903358E+00      0.8799840184E+00
          0                 4           2             4    7     1       0.3660666006E-02       4    7    1         0.1936491941E+00      0.3291535586E+00
          0                 5           2             4    7     1       0.1372546448E-02       4    7    1         0.7261032040E-01      0.1232834019E+00
          0                 6           2             4    7     1       0.5145944832E-03       4    7    1         0.2722448446E-01      0.4618734743E-01
          0                 7           2             4    7     1       0.1929204801E-03       4    7    1         0.1020685076E-01      0.1730542586E-01
          0                 8           1             4    7     1       0.7232197223E-04       4    7    1         0.3826484291E-02      0.6484590601E-02

    ------------------------------------------------
       NWT REQUIRED            8 OUTER ITERATIONS 
       AND A TOTAL OF         15 INNER ITERATIONS.
    ------------------------------------------------

 NO OUTPUT CONTROL FOR STRESS PERIOD   47   TIME STEP   26
 
 SOLVING FOR HEAD 
                                                   Max.-Head-Change                         Max.-Flux-Residual
  Residual-Control   Outer-Iter.   Inner-Iter.     Column Row Layer    Maximum-Head-Change  Column Row Layer    Maximum-Flux-Residual          L2-NORM 
          0                 1           2             6    7     1       0.6818354834E-01       6    7    1         0.3633501549E+01      0.9931317210E+01
          0                 2           2             4    7     1       0.2271947770E-01       4    7    1         0.1212103639E+01      0.1931495643E+01
          0                 3           2             4    7     1       0.1071791090E-01       4    7    1         0.5685516025E+00      0.9142934827E+00
          0                 4           2             4    7     1       0.4004272530E-02       4    7    1         0.2124286050E+00      0.3408431371E+00
          0                 5           2             4    7     1       0.1496232922E-02       4    7    1         0.7936556248E-01      0.1272762004E+00
          0                 6           2             4    7     1       0.5591513176E-03       4    7    1         0.2965660928E-01      0.4754466032E-01
          0                 7           2             4    7     1       0.2089813305E-03       4    7    1         0.1108313844E-01      0.1776375264E-01
          0                 8           1             4    7     1       0.7811381717E-04       4    7    1         0.4142387897E-02      0.6638011823E-02

    ------------------------------------------------
       NWT REQUIRED            8 OUTER ITERATIONS 
       AND A TOTAL OF         15 INNER ITERATIONS.
    ------------------------------------------------

 NO OUTPUT CONTROL FOR STRESS PERIOD   47   TIME STEP   27
 
 SOLVING FOR HEAD 
                                                   Max.-Head-Change                         Max.-Flux-Residual
  Residual-Control   Outer-Iter.   Inner-Iter.     Column Row Layer    Maximum-Head-Change  Column Row Layer    Maximum-Flux-Residual          L2-NORM 
          0                 1           2             6    7     1       0.6698406303E-01       6    7    1         0.3569728160E+01      0.9705498058E+01
          0                 2           2             4    7     1       0.2411692677E-01       4    7    1         0.1283438275E+01      0.2098244304E+01
          0                 3           2             4    7     1       0.8988216855E-02       4    7    1         0.4776431133E+00      0.7175603878E+00
          0                 4           2             4    7     1       0.3350273398E-02       4    7    1         0.1780605118E+00      0.2674267017E+00
          0                 5           2             4    7     1       0.1248942320E-02       4    7    1         0.6637051335E-01      0.9989348224E-01
          0                 6           2             4    7     1       0.4656504492E-03       4    7    1         0.2474288473E-01      0.3732535454E-01
          0                 7           2             4    7     1       0.1736332770E-03       4    7    1         0.9225281196E-02      0.1394838659E-01
          0                 8           1             4    7     1       0.6475312009E-04       4    7    1         0.3440046030E-02      0.5213088866E-02

    ------------------------------------------------
       NWT REQUIRED            8 OUTER ITERATIONS 
       AND A TOTAL OF         15 INNER ITERATIONS.
    ------------------------------------------------

 NO OUTPUT CONTROL FOR STRESS PERIOD   47   TIME STEP   28
 
 SOLVING FOR HEAD 
                                                   Max.-Head-Change                         Max.-Flux-Residual
  Residual-Control   Outer-Iter.   Inner-Iter.     Column Row Layer    Maximum-Head-Change  Column Row Layer    Maximum-Flux-Residual          L2-NORM 
          0                 1           2             6    7     1       0.6579545020E-01       6    7    1         0.3506549803E+01      0.9529765932E+01
          0                 2           2             4    7     1       0.2108168109E-01       4    7    1         0.1123230266E+01      0.1835165434E+01
          0                 3           2             4    7     1       0.1006801063E-01       4    7    1         0.5334383829E+00      0.8709771855E+00
          0                 4           2             4    7     1       0.3766713326E-02       4    7    1         0.1996110147E+00      0.3250631414E+00
          0                 5           2             4    7     1       0.1409259680E-02       4    7    1         0.7467860164E-01      0.1215036848E+00
          0                 6           2             4    7     1       0.5272628574E-03       4    7    1         0.2794008387E-01      0.4542590957E-01
          0                 7           2             4    7     1       0.1972738199E-03       4    7    1         0.1045358639E-01      0.1698397032E-01
          0                 8           1             4    7     1       0.7381022398E-04       4    7    1         0.3911189299E-02      0.6350367167E-02

    ------------------------------------------------
       NWT REQUIRED            8 OUTER ITERATIONS 
       AND A TOTAL OF         15 INNER ITERATIONS.
    ------------------------------------------------

 NO OUTPUT CONTROL FOR STRESS PERIOD   47   TIME STEP   29
 
 SOLVING FOR HEAD 
                                                   Max.-Head-Change                         Max.-Flux-Residual
  Residual-Control   Outer-Iter.   Inner-Iter.     Column Row Layer    Maximum-Head-Change  Column Row Layer    Maximum-Flux-Residual          L2-NORM 
          0                 1           2             6    7     1       0.6460435712E-01       6    7    1         0.3443033532E+01      0.9316507017E+01
          0                 2           2             4    7     1       0.2248608931E-01       4    7    1         0.1196822638E+01      0.1982110942E+01
          0                 3           2             4    7     1       0.8375983417E-02       4    7    1         0.4453298671E+00      0.6688006165E+00
          0                 4           2             4    7     1       0.3118740533E-02       4    7    1         0.1659092978E+00      0.2471174217E+00
          0                 5           2             4    7     1       0.1160829146E-02       4    7    1         0.6176832413E-01      0.9157601251E-01
          0                 6           2             4    7     1       0.4319409705E-03       4    7    1         0.2298924073E-01      0.3396308786E-01
          0                 7           1             4    7     1       0.1606817301E-03       4    7    1         0.8553687499E-02      0.1260270539E-01
          0                 8           1             4    7     1       0.5976011181E-04       4    7    1         0.3181794899E-02      0.4678706675E-02

    ------------------------------------------------
       NWT REQUIRED            8 OUTER ITERATIONS 
       AND A TOTAL OF         14 INNER ITERATIONS.
    ------------------------------------------------

 NO OUTPUT CONTROL FOR STRESS PERIOD   47   TIME STEP   30



 STREAM LISTING     PERIOD     47   STEP       30

 LAYER ROW COL. STREAM  RCH.  FLOW INTO     FLOW TO   FLOW OUT OF   OVRLND.     DIRECT     STREAM       STREAM     STREAM     STREAM   STREAMBED  STREAMBED
                SEG.NO.  NO.  STRM. RCH.    AQUIFER    STRM. RCH.    RUNOFF     PRECIP       ET          HEAD       DEPTH      WIDTH   CONDCTNC.   GRADIENT

   1    1    1     1     1    1.5942E+01  1.9373E-01   1.5748E+01  0.000E+00  0.000E+00  0.000E+00  1.09408E+03  1.028E+00  1.069E+01  4.809E-02  1.343E+00
   1    2    2     1     2    1.5748E+01  2.9868E-01   1.5450E+01  0.000E+00  0.000E+00  0.000E+00  1.08908E+03  1.024E+00  1.060E+01  7.423E-02  1.341E+00
   1    3    3     1     3    1.5450E+01  2.5341E-01   1.5196E+01  0.000E+00  0.000E+00  0.000E+00  1.08344E+03  1.018E+00  1.051E+01  6.306E-02  1.339E+00
   1    3    4     1     4    1.5196E+01  2.3228E-01   1.4964E+01  0.000E+00  0.000E+00  0.000E+00  1.07842E+03  1.014E+00  1.043E+01  5.787E-02  1.338E+00
   1    4    5     2     1    1.2964E+01  2.9708E-01   1.2667E+01  0.000E+00  0.000E+00  0.000E+00  1.07274E+03  8.087E-01  1.200E+01  7.800E-02  1.270E+00
   1    5    6     2     2    1.2667E+01  2.2792E-01   1.2439E+01  0.000E+00  0.000E+00  0.000E+00  1.06731E+03  7.987E-01  1.200E+01  6.000E-02  1.266E+00
   1    6    6     2     3    1.2439E+01  2.2740E-01   1.2211E+01  0.000E+00  0.000E+00  0.000E+00  1.06258E+03  7.900E-01  1.200E+01  6.000E-02  1.263E+00
   1    7    6     2     4    1.2211E+01  2.2687E-01   1.1985E+01  0.000E+00  0.000E+00  0.000E+00  1.05786E+03  7.812E-01  1.200E+01  6.000E-02  1.260E+00
   1    8    6     2     5    1.1985E+01  2.2634E-01   1.1758E+01  0.000E+00  0.000E+00  0.000E+00  1.05313E+03  7.724E-01  1.200E+01  6.000E-02  1.257E+00
   1    3    5     3     1    2.0000E+00  2.8252E-01   1.7175E+00  0.000E+00  0.000E+00  0.000E+00  1.07555E+03  1.909E+00  9.636E+00  7.227E-02  1.955E+00
   1    3    6     3     2    1.7175E+00  2.4905E-01   1.4684E+00  0.000E+00  0.000E+00  0.000E+00  1.07264E+03  1.727E+00  8.909E+00  6.682E-02  1.864E+00
   1    3    7     3     3    1.4684E+00  1.9718E-01   1.2712E+00  0.000E+00  0.000E+00  0.000E+00  1.06987E+03  1.555E+00  8.218E+00  5.547E-02  1.777E+00
   1    4    8     3     4    1.2712E+00  2.2567E-01   1.0456E+00  0.000E+00  0.000E+00  0.000E+00  1.06682E+03  1.364E+00  7.455E+00  6.709E-02  1.682E+00
   1    5    8     3     5    1.0456E+00  1.5790E-01   8.8768E-01  0.000E+00  0.000E+00  0.000E+00  1.06362E+03  1.164E+00  6.655E+00  4.991E-02  1.582E+00
   1    6    8     3     6    8.8768E-01  5.5980E-02   8.3170E-01  0.000E+00  0.000E+00  0.000E+00  1.06158E+03  1.036E+00  6.145E+00  1.844E-02  1.518E+00
   1    5   10     4     1    1.0000E+01  9.0919E-02   9.9091E+00  0.000E+00  0.000E+00  0.000E+00  1.07836E+03  6.368E-01  1.000E+01  2.500E-02  1.212E+00
   1    5    9     4     2    9.9091E+00  1.8158E-01   9.7275E+00  0.000E+00  0.000E+00  0.000E+00  1.07154E+03  6.315E-01  1.000E+01  5.000E-02  1.211E+00
   1    6    8     4     3    9.7275E+00  1.2689E-01   9.6006E+00  0.000E+00  0.000E+00  0.000E+00  1.06381E+03  6.256E-01  1.000E+01  3.500E-02  1.209E+00
   1    6    8     5     1    1.0432E+01  2.2686E-01   1.0205E+01  0.000E+00  0.000E+00  0.000E+00  1.05868E+03  6.790E-01  1.542E+01  6.166E-02  1.226E+00
   1    7    7     5     2    1.0205E+01  2.7894E-01   9.9265E+00  0.000E+00  0.000E+00  0.000E+00  1.05417E+03  6.732E-01  1.519E+01  7.594E-02  1.224E+00
   1    8    7     5     3    9.9265E+00  1.9221E-01   9.7343E+00  0.000E+00  0.000E+00  0.000E+00  1.04992E+03  6.676E-01  1.497E+01  5.241E-02  1.223E+00
   1    8    6     5     4    9.7343E+00  1.3577E-01   9.5985E+00  0.000E+00  0.000E+00  0.000E+00  1.04691E+03  6.637E-01  1.482E+01  3.706E-02  1.221E+00
   1    9    6     6     1    2.1357E+01  2.4643E-01   2.1110E+01  0.000E+00  0.000E+00  0.000E+00  1.04383E+03  1.107E+00  1.200E+01  6.000E-02  1.369E+00
   1   10    7     6     2    2.1110E+01  2.4596E-01   2.0864E+01  0.000E+00  0.000E+00  0.000E+00  1.03928E+03  1.099E+00  1.200E+01  6.000E-02  1.366E+00
   1   11    7     6     3    2.0864E+01  2.4550E-01   2.0619E+01  0.000E+00  0.000E+00  0.000E+00  1.03473E+03  1.092E+00  1.200E+01  6.000E-02  1.364E+00
   1   12    7     6     4    2.0619E+01  2.4503E-01   2.0374E+01  0.000E+00  0.000E+00  0.000E+00  1.03017E+03  1.084E+00  1.200E+01  6.000E-02  1.361E+00
   1   13    7     6     5    2.0374E+01  4.9246E-03   2.0369E+01  0.000E+00  0.000E+00  0.000E+00  1.02699E+03  1.080E+00  1.200E+01  2.400E-02  6.840E-02
   1   14    9     7     1    1.5000E+02  1.3769E+00   1.4862E+02  0.000E+00  0.000E+00  0.000E+00  1.03987E+03  2.288E+00  5.529E+01  5.593E-01  8.206E-01
   1   13    8     7     2    1.4862E+02  1.9396E+00   1.4668E+02  0.000E+00  0.000E+00  0.000E+00  1.03478E+03  2.279E+00  5.525E+01  6.147E-01  1.052E+00
   1   13    7     7     3    1.4668E+02  1.6220E+00   1.4506E+02  0.000E+00  0.000E+00  0.000E+00  1.02969E+03  2.269E+00  5.521E+01  5.584E-01  9.683E-01
   1   13    6     8     1    1.6543E+02  1.0384E+00   1.6439E+02  0.000E+00  0.000E+00  0.000E+00  1.02479E+03  2.919E+00  4.232E+01  4.313E-01  8.026E-01
   1   13    5     8     2    1.6439E+02  2.8252E-01   1.6411E+02  0.000E+00  0.000E+00  0.000E+00  1.01854E+03  2.914E+00  4.226E+01  4.306E-01  2.187E-01
   1   13    4     8     3    1.6411E+02 -2.0773E+00   1.6619E+02  0.000E+00  0.000E+00  0.000E+00  1.01230E+03  2.920E+00  4.234E+01  4.315E+00 -1.605E-01
   1   13    3     8     4    1.6619E+02 -3.4678E+00   1.6965E+02  0.000E+00  0.000E+00  0.000E+00  1.00606E+03  2.939E+00  4.261E+01  4.342E+00 -2.662E-01
   1   13    2     8     5    1.6965E+02 -2.5240E+00   1.7218E+02  0.000E+00  0.000E+00  0.000E+00  9.99833E+02  2.958E+00  4.289E+01  4.371E+00 -1.925E-01
   1   13    1     8     6    1.7218E+02 -1.9587E+00   1.7414E+02  0.000E+00  0.000E+00  0.000E+00  9.94848E+02  2.973E+00  4.310E+01  2.635E+00 -2.477E-01
   1    8    6     9     1    0.0000E+00  0.0000E+00   0.0000E+00  0.000E+00  0.000E+00  0.000E+00  1.07875E+03  0.000E+00  4.000E+00  0.000E+00  1.000E+00
   1    8    5     9     2    0.0000E+00  0.0000E+00   0.0000E+00  0.000E+00  0.000E+00  0.000E+00  1.07825E+03  0.000E+00  4.000E+00  0.000E+00  1.000E+00





UNSATURATED ZONE PACKAGE VOLUMETRIC BUDGET FOR  TIME STEP    30 STRESS PERIOD   47
  ------------------------------------------------------------------------------



     CUMULATIVE VOLUMES      L**3       RATES FOR THIS TIME STEP      L**3/T
     ------------------                 ------------------------

           IN:                                      IN:
           ---                                      ---
        INFILTRATION = 13143549818.3134          INFILTRATION =           0.8475

          OUT:                                     OUT:
          ----                                     ----
              UZF ET =  1710027795.8201                UZF ET =           1.5675
        UZF RECHARGE = 10937561427.9311          UZF RECHARGE =          38.7653

            IN - OUT =   495960594.5622              IN - OUT =         -39.4853

          STORAGE:                                 STORAGE:
          --------                                 --------
      STORAGE CHANGE =   497462324.8377        STORAGE CHANGE =         -39.4853

 PERCENT DISCREPANCY IS DIFFERENCE BETWEEN IN-OUT MINUS CHANGE IN STORAGE
 DIVIDED BY THE AVERAGE OF IN AND OUT TIMES 100

 PERCENT DISCREPANCY =          -0.00     PERCENT DISCREPANCY =          -0.00






1
  VOLUMETRIC BUDGET FOR AGRICULTURAL FIELDS AT  END OF TIME STEP   30, STRESS PERIOD  47
  ------------------------------------------------------------------------------

     CUMULATIVE VOLUMES      L**3       RATES FOR THIS TIME STEP      L**3/T
     ------------------                 ------------------------

           IN:                                      IN:
           ---                                      ---
               AG WELLS  = 11826811904.0000                 AG WELLS  =           0.0000
      DIVERSION SEGMENTS =  1214144000.0000        DIVERSION SEGMENTS =           0.0000
       IRRIGATION PONDS  =           0.0000         IRRIGATION PONDS  =           0.0000
           GW IRRIGATION =           0.0000             GW IRRIGATION =           0.0000
           SW IRRIGATION =           0.0000             SW IRRIGATION =           0.0000
        SYSTEM LOSSES GW =           0.0000          SYSTEM LOSSES GW =           0.0000
        SYSTEM LOSSES SW =           0.0000          SYSTEM LOSSES SW =           0.0000

                TOTAL IN = 13040955392.0000                  TOTAL IN =           0.0000

          OUT:                                     OUT:
          ----                                     ----
               AG WELLS  =           0.0000                 AG WELLS  =           0.0000
      DIVERSION SEGMENTS =           0.0000        DIVERSION SEGMENTS =           0.0000
       IRRIGATION PONDS  =           0.0000         IRRIGATION PONDS  =           0.0000
           GW IRRIGATION = 11826811904.0000             GW IRRIGATION =           0.0000
           SW IRRIGATION =  1214164096.0000             SW IRRIGATION =           0.0000
        SYSTEM LOSSES GW =           0.0000          SYSTEM LOSSES GW =           0.0000
        SYSTEM LOSSES SW =           0.0000          SYSTEM LOSSES SW =           0.0000

               TOTAL OUT = 13040975872.0000                 TOTAL OUT =           0.0000

                IN - OUT =      -20480.0000                  IN - OUT =           0.0000

     PERCENT DISCREPANCY =          -0.00         PERCENT DISCREPANCY =           0.00



1
  VOLUMETRIC BUDGET FOR ENTIRE MODEL AT END OF TIME STEP   30, STRESS PERIOD  47
  ------------------------------------------------------------------------------

     CUMULATIVE VOLUMES      L**3       RATES FOR THIS TIME STEP      L**3/T
     ------------------                 ------------------------

           IN:                                      IN:
           ---                                      ---
             STORAGE     = 10137092096.0000               STORAGE     =           4.9316
       CONSTANT HEAD     =           0.0000         CONSTANT HEAD     =           0.0000
     HEAD DEP BOUNDS     =    34745568.0000       HEAD DEP BOUNDS     =           0.2886
      STREAM LEAKAGE     =  1496955904.0000        STREAM LEAKAGE     =          11.8325
        UZF RECHARGE     = 10937555968.0000          UZF RECHARGE     =          38.7653
               GW ET     =           0.0000                 GW ET     =           0.0000
     SURFACE LEAKAGE     =           0.0000       SURFACE LEAKAGE     =           0.0000
           AG WELLS      =           0.0000             AG WELLS      =           0.0000

                TOTAL IN = 22606348288.0000                  TOTAL IN =          55.8180

          OUT:                                     OUT:
          ----                                     ----
             STORAGE     =  9508391936.0000               STORAGE     =          45.4979
       CONSTANT HEAD     =           0.0000         CONSTANT HEAD     =           0.0000
     HEAD DEP BOUNDS     =    35155728.0000       HEAD DEP BOUNDS     =           0.2885
      STREAM LEAKAGE     =  1234328832.0000        STREAM LEAKAGE     =          10.0277
        UZF RECHARGE     =           0.0000          UZF RECHARGE     =           0.0000
               GW ET     =     1532757.2500                 GW ET     =           0.0000
     SURFACE LEAKAGE     =           0.0000       SURFACE LEAKAGE     =           0.0000
           AG WELLS      = 11826811904.0000             AG WELLS      =           0.0000

               TOTAL OUT = 22606221312.0000                 TOTAL OUT =          55.8141

                IN - OUT =      126976.0000                  IN - OUT =       3.8986E-03

     PERCENT DISCREPANCY =           0.00         PERCENT DISCREPANCY =           0.01






         TIME SUMMARY AT END OF TIME STEP   30 IN STRESS PERIOD   47
                    SECONDS     MINUTES      HOURS       DAYS        YEARS
                    -----------------------------------------------------------
   TIME STEP LENGTH  87667.      1461.1      24.352      1.0147     2.77799E-03
 STRESS PERIOD TIME 2.63000E+06  43833.      730.56      30.440     8.33397E-02
         TOTAL TIME 1.21065E+08 2.01775E+06  33629.      1401.2      3.8363    
1
1
                            STRESS PERIOD NO.   48, LENGTH =   2630000.    
                            -----------------------------------------------

                              NUMBER OF TIME STEPS =    30

                               MULTIPLIER FOR DELT =     1.000

                            INITIAL TIME STEP SIZE =   87666.66    

 REUSING NON-PARAMETER GHB CELLS FROM LAST STRESS PERIOD

      2 GHB CELLS

 REUSING STREAM SEGMENT DATA FROM LAST STRESS PERIOD



            AREAL INFILTRATION RATE
 READING ON UNIT   19 WITH FORMAT: (FREE)              

            1           2           3           4           5           6           7           8           9          10
 ........................................................................................................................
   1   1.0000E-10  2.0000E-10   0.000       0.000       0.000       0.000       0.000       0.000       0.000       0.000    
   2   2.0000E-10  1.0000E-10  2.0000E-10   0.000       0.000      8.0000E-10  8.0000E-10  5.0000E-10   0.000       0.000    
   3    0.000      5.0000E-10  1.0000E-10  1.0000E-10  8.0000E-10  8.0000E-10  5.0000E-10  5.0000E-10   0.000       0.000    
   4   8.0000E-10  5.0000E-10  1.0000E-10  1.0000E-10  1.0000E-10  1.0000E-10  1.0000E-10  1.0000E-10  2.0000E-10   0.000    
   5   8.0000E-10  5.0000E-10  1.0000E-10  1.0000E-10  1.0000E-10  1.0000E-10  1.0000E-10  1.0000E-10  1.0000E-10  1.0000E-10
   6   8.0000E-10  5.0000E-10  5.0000E-10  2.0000E-10  2.0000E-10  1.0000E-10  1.0000E-10  1.0000E-10  1.0000E-10  5.0000E-10
   7   8.0000E-10  5.0000E-10  5.0000E-10  2.0000E-10  2.0000E-10  1.0000E-10  1.0000E-10  2.0000E-10  2.0000E-10   0.000    
   8    0.000      5.0000E-10  5.0000E-10  2.0000E-10  2.0000E-10  1.0000E-10  1.0000E-10  2.0000E-10  5.0000E-10   0.000    
   9    0.000      5.0000E-10  5.0000E-10  2.0000E-10  2.0000E-10  1.0000E-10  1.0000E-10  2.0000E-10  5.0000E-10   0.000    
  10    0.000      5.0000E-10  5.0000E-10  2.0000E-10  2.0000E-10  1.0000E-10  1.0000E-10  2.0000E-10  5.0000E-10  8.0000E-10
  11    0.000      1.0000E-10  1.0000E-10  1.0000E-10  1.0000E-10  1.0000E-10  1.0000E-10  2.0000E-10  5.0000E-10   0.000    
  12   1.0000E-10  1.0000E-10  1.0000E-10  1.0000E-10  1.0000E-10  1.0000E-10  1.0000E-10  1.0000E-10  2.0000E-10   0.000    
  13   1.0000E-10  1.0000E-10  2.0000E-10  2.0000E-10  2.0000E-10  2.0000E-10  2.0000E-10  1.0000E-10  1.0000E-10   0.000    
  14    0.000      2.0000E-10  5.0000E-10  5.0000E-10  5.0000E-10  5.0000E-10  5.0000E-10  2.0000E-10  1.0000E-10   0.000    
  15    0.000       0.000      8.0000E-10  8.0000E-10  8.0000E-10  8.0000E-10   0.000       0.000       0.000       0.000    

                  ET RATE =  5.000000E-10

 USING ET EXTINCTION DEPTH FROM PREVIOUS STRESS PERIOD. CURRENT PERIOD IS:      48

 USING EXTINCTION WATER CONTENT FROM PREVIOUS STRESS PERIOD. CURRENT PERIOD IS:      48

 USING AIR ENTRY PRESSURE FROM PREVIOUS STRESS PERIOD. CURRENT PERIOD IS:      48

 USING ROOT PRESSURE HEAD FROM PREVIOUS STRESS PERIOD. CURRENT PERIOD IS:      48

 USING ROOT ACTIVITY FROM PREVIOUS STRESS PERIOD. CURRENT PERIOD IS:      48

 PROCESSING AG STRESS PERIOD DATA

 READING AG STRESS PERIOD DATA

 READING IRRIGATION SEGMENT

 READING IRRIGATION WELL

 READING SUPPLEMENTAL WELL

 NO IRRPOND OR REUSING IRRPOND DATA FROM LAST STRESS PERIOD

 END PROCESSING AG STRESS PERIOD DATA OPTIONS
 
 SOLVING FOR HEAD 
                                                   Max.-Head-Change                         Max.-Flux-Residual
  Residual-Control   Outer-Iter.   Inner-Iter.     Column Row Layer    Maximum-Head-Change  Column Row Layer    Maximum-Flux-Residual          L2-NORM 
          0                 1           2             6    7     1       0.6317363522E-01       6    7    1         0.3381466810E+01      0.8790924284E+01
          0                 2           2             4    7     1       0.2123250899E-01       4    7    1         0.1140788816E+01      0.1688836639E+01
          0                 3           2             4    7     1       0.7820057001E-02       4    7    1         0.4194363231E+00      0.5504242049E+00
          0                 4           2             4    7     1       0.2880878144E-02       4    7    1         0.1545308037E+00      0.2026201974E+00
          0                 5           2             4    7     1       0.1061550365E-02       4    7    1         0.5692982353E-01      0.7487810201E-01
          0                 6           2             4    7     1       0.3912480068E-03       4    7    1         0.2097868882E-01      0.2768584755E-01
          0                 7           1             4    7     1       0.1442298046E-03       4    7    1         0.7732322927E-02      0.1023959013E-01
          0                 8           1             4    7     1       0.5317960998E-04       4    7    1         0.2850573091E-02      0.3788097216E-02

    ------------------------------------------------
       NWT REQUIRED            8 OUTER ITERATIONS 
       AND A TOTAL OF         14 INNER ITERATIONS.
    ------------------------------------------------

 NO OUTPUT CONTROL FOR STRESS PERIOD   48   TIME STEP    1
 
 SOLVING FOR HEAD 
                                                   Max.-Head-Change                         Max.-Flux-Residual
  Residual-Control   Outer-Iter.   Inner-Iter.     Column Row Layer    Maximum-Head-Change  Column Row Layer    Maximum-Flux-Residual          L2-NORM 
          0                 1           2             6    7     1       0.6141598422E-01       6    7    1         0.3295838520E+01      0.8356944249E+01
          0                 2           2             4    7     1       0.1468552293E-01       4    7    1         0.7864493428E+00      0.1427353468E+01
          0                 3           2             4    7     1       0.5112576575E-02       4    7    1         0.2727829183E+00      0.4308789704E+00
          0                 4           2             4    7     1       0.1783201054E-02       4    7    1         0.9504530100E-01      0.1544661041E+00
          0                 5           2             4    7     1       0.6231049985E-03       4    7    1         0.3316272499E-01      0.5580267687E-01
          0                 6           2             4    6     1       0.2244434315E-03       4    6    1         0.1194420015E-01      0.2020111186E-01
          0                 7           1             4    6     1       0.8343981804E-04       4    6    1         0.4444601285E-02      0.7324210024E-02

    ------------------------------------------------
       NWT REQUIRED            7 OUTER ITERATIONS 
       AND A TOTAL OF         13 INNER ITERATIONS.
    ------------------------------------------------

 NO OUTPUT CONTROL FOR STRESS PERIOD   48   TIME STEP    2
 
 SOLVING FOR HEAD 
                                                   Max.-Head-Change                         Max.-Flux-Residual
  Residual-Control   Outer-Iter.   Inner-Iter.     Column Row Layer    Maximum-Head-Change  Column Row Layer    Maximum-Flux-Residual          L2-NORM 
          0                 1           2             6    7     1       0.5963548193E-01       6    7    1         0.3198119113E+01      0.7905544457E+01
          0                 2           2             4    6     1       0.1113156664E-01       4    6    1         0.6060314264E+00      0.1152212905E+01
          0                 3           2             4    6     1       0.4073077004E-02       4    6    1         0.2192486643E+00      0.3129468520E+00
          0                 4           2             4    6     1       0.1490282741E-02       4    6    1         0.8038538457E-01      0.1113694336E+00
          0                 5           2             4    6     1       0.5452412343E-03       4    6    1         0.2940496807E-01      0.4013675946E-01
          0                 6           2             4    6     1       0.1994702988E-03       4    6    1         0.1075835624E-01      0.1448458628E-01
          0                 7           1             4    6     1       0.7296822090E-04       4    6    1         0.3935750208E-02      0.5231509599E-02

    ------------------------------------------------
       NWT REQUIRED            7 OUTER ITERATIONS 
       AND A TOTAL OF         13 INNER ITERATIONS.
    ------------------------------------------------

 NO OUTPUT CONTROL FOR STRESS PERIOD   48   TIME STEP    3
 
 SOLVING FOR HEAD 
                                                   Max.-Head-Change                         Max.-Flux-Residual
  Residual-Control   Outer-Iter.   Inner-Iter.     Column Row Layer    Maximum-Head-Change  Column Row Layer    Maximum-Flux-Residual          L2-NORM 
          0                 1           2             4    5     1       0.5821056213E-01       6    7    1         0.3105475683E+01      0.7749004050E+01
          0                 2           2             4    6     1       0.1076590712E-01       4    6    1         0.5872094499E+00      0.1136974858E+01
          0                 3           2             4    6     1       0.3931505025E-02       4    6    1         0.2119408095E+00      0.3097462134E+00
          0                 4           2             4    6     1       0.1435980740E-02       4    6    1         0.7755964858E-01      0.1098273061E+00
          0                 5           2             4    6     1       0.5245694891E-03       4    6    1         0.2832321882E-01      0.3944622974E-01
          0                 6           2             4    6     1       0.1916475637E-03       4    6    1         0.1034690344E-01      0.1419204972E-01
          0                 7           1             4    6     1       0.7002356779E-04       4    6    1         0.3780150629E-02      0.5112223174E-02

    ------------------------------------------------
       NWT REQUIRED            7 OUTER ITERATIONS 
       AND A TOTAL OF         13 INNER ITERATIONS.
    ------------------------------------------------

 NO OUTPUT CONTROL FOR STRESS PERIOD   48   TIME STEP    4
 
 SOLVING FOR HEAD 
                                                   Max.-Head-Change                         Max.-Flux-Residual
  Residual-Control   Outer-Iter.   Inner-Iter.     Column Row Layer    Maximum-Head-Change  Column Row Layer    Maximum-Flux-Residual          L2-NORM 
          0                 1           2             4    5     1       0.5693969618E-01       4    5    1         0.3040643052E+01      0.7524246291E+01
          0                 2           2             4    7     1       0.7800732823E-02       4    7    1         0.4132070274E+00      0.1050110695E+01
          0                 3           2             4    7     1       0.2755078610E-02       4    7    1         0.1453725110E+00      0.2671308718E+00
          0                 4           2             4    7     1       0.9727258630E-03       4    7    1         0.5137818288E-01      0.9212259771E-01
          0                 5           2             4    7     1       0.3433367916E-03       4    7    1         0.1813706804E-01      0.3227260313E-01
          0                 6           1             4    7     1       0.1211540818E-03       4    7    1         0.6401312314E-02      0.1132012072E-01
          0                 7           1             4    7     1       0.4274220002E-04       4    7    1         0.2258721155E-02      0.3973507544E-02

    ------------------------------------------------
       NWT REQUIRED            7 OUTER ITERATIONS 
       AND A TOTAL OF         12 INNER ITERATIONS.
    ------------------------------------------------

 NO OUTPUT CONTROL FOR STRESS PERIOD   48   TIME STEP    5
 
 SOLVING FOR HEAD 
                                                   Max.-Head-Change                         Max.-Flux-Residual
  Residual-Control   Outer-Iter.   Inner-Iter.     Column Row Layer    Maximum-Head-Change  Column Row Layer    Maximum-Flux-Residual          L2-NORM 
          0                 1           2             4    5     1       0.5525084788E-01       4    5    1         0.2969542174E+01      0.7293700733E+01
          0                 2           2             4    7     1       0.7442467047E-02       4    7    1         0.3997205300E+00      0.9560610567E+00
          0                 3           2             4    7     1       0.2584896910E-02       4    7    1         0.1381484867E+00      0.2264432093E+00
          0                 4           2             4    7     1       0.8985032800E-03       4    7    1         0.4802866993E-01      0.7737948920E-01
          0                 5           2             4    7     1       0.3125574478E-03       4    7    1         0.1669608458E-01      0.2702083467E-01
          0                 6           1             4    7     1       0.1088072666E-03       4    7    1         0.5808953059E-02      0.9446543055E-02
          0                 7           1             4    7     1       0.3790408751E-04       4    7    1         0.2022507479E-02      0.3304120334E-02

    ------------------------------------------------
       NWT REQUIRED            7 OUTER ITERATIONS 
       AND A TOTAL OF         12 INNER ITERATIONS.
    ------------------------------------------------

 NO OUTPUT CONTROL FOR STRESS PERIOD   48   TIME STEP    6
 
 SOLVING FOR HEAD 
                                                   Max.-Head-Change                         Max.-Flux-Residual
  Residual-Control   Outer-Iter.   Inner-Iter.     Column Row Layer    Maximum-Head-Change  Column Row Layer    Maximum-Flux-Residual          L2-NORM 
          0                 1           2             3    7     1       0.5450390820E-01       4    5    1         0.2870065494E+01      0.7135741899E+01
          0                 2           2             4    7     1       0.7204174719E-02       4    7    1         0.3860453630E+00      0.9455763840E+00
          0                 3           2             4    7     1       0.2509576563E-02       4    7    1         0.1338134250E+00      0.2271244741E+00
          0                 4           2             4    7     1       0.8748304833E-03       4    7    1         0.4665860502E-01      0.7786237378E-01
          0                 5           2             4    7     1       0.3051729835E-03       4    7    1         0.1626572584E-01      0.2723713958E-01
          0                 6           1             4    7     1       0.1065268129E-03       4    7    1         0.5674813227E-02      0.9538503354E-02
          0                 7           1             4    7     1       0.3720958091E-04       4    7    1         0.1981157253E-02      0.3342044952E-02

    ------------------------------------------------
       NWT REQUIRED            7 OUTER ITERATIONS 
       AND A TOTAL OF         12 INNER ITERATIONS.
    ------------------------------------------------

 NO OUTPUT CONTROL FOR STRESS PERIOD   48   TIME STEP    7
 
 SOLVING FOR HEAD 
                                                   Max.-Head-Change                         Max.-Flux-Residual
  Residual-Control   Outer-Iter.   Inner-Iter.     Column Row Layer    Maximum-Head-Change  Column Row Layer    Maximum-Flux-Residual          L2-NORM 
          0                 1           2             3    7     1       0.5399000654E-01       6    7    1         0.2777816162E+01      0.6990556208E+01
          0                 2           2             4    7     1       0.7002029094E-02       4    7    1         0.3744035624E+00      0.9378983950E+00
          0                 3           2             4    7     1       0.2446007468E-02       4    7    1         0.1301409273E+00      0.2287243280E+00
          0                 4           2             4    7     1       0.8549842941E-03       4    7    1         0.4550629643E-01      0.7862994712E-01
          0                 5           2             4    7     1       0.2990253874E-03       4    7    1         0.1590703134E-01      0.2754040940E-01
          0                 6           1             4    7     1       0.1046385178E-03       4    7    1         0.5564076627E-02      0.9655291298E-02
          0                 7           1             4    7     1       0.3663477571E-04       4    7    1         0.1947277014E-02      0.3386065443E-02

    ------------------------------------------------
       NWT REQUIRED            7 OUTER ITERATIONS 
       AND A TOTAL OF         12 INNER ITERATIONS.
    ------------------------------------------------

 NO OUTPUT CONTROL FOR STRESS PERIOD   48   TIME STEP    8
 
 SOLVING FOR HEAD 
                                                   Max.-Head-Change                         Max.-Flux-Residual
  Residual-Control   Outer-Iter.   Inner-Iter.     Column Row Layer    Maximum-Head-Change  Column Row Layer    Maximum-Flux-Residual          L2-NORM 
          0                 1           2             3    7     1       0.5347499516E-01       6    7    1         0.2705628770E+01      0.6856803641E+01
          0                 2           2             4    7     1       0.6831455562E-02       4    7    1         0.3645397800E+00      0.9324514679E+00
          0                 3           2             4    7     1       0.2392676184E-02       4    7    1         0.1270455548E+00      0.2309695804E+00
          0                 4           2             4    7     1       0.8384441249E-03       4    7    1         0.4453981904E-01      0.7959217850E-01
          0                 5           2             4    7     1       0.2939460885E-03       4    7    1         0.1560791715E-01      0.2790459855E-01
          0                 6           1             4    7     1       0.1030978367E-03       4    7    1         0.5472455649E-02      0.9791737056E-02
          0                 7           1             4    7     1       0.3617475698E-04       4    7    1         0.1919575276E-02      0.3436796123E-02

    ------------------------------------------------
       NWT REQUIRED            7 OUTER ITERATIONS 
       AND A TOTAL OF         12 INNER ITERATIONS.
    ------------------------------------------------

 NO OUTPUT CONTROL FOR STRESS PERIOD   48   TIME STEP    9
 
 SOLVING FOR HEAD 
                                                   Max.-Head-Change                         Max.-Flux-Residual
  Residual-Control   Outer-Iter.   Inner-Iter.     Column Row Layer    Maximum-Head-Change  Column Row Layer    Maximum-Flux-Residual          L2-NORM 
          0                 1           2             3    7     1       0.5296077415E-01       6    7    1         0.2636928285E+01      0.6733272139E+01
          0                 2           2             4    7     1       0.6688489238E-02       4    7    1         0.3562329348E+00      0.9287412788E+00
          0                 3           2             4    7     1       0.2348282525E-02       4    7    1         0.1244550540E+00      0.2336382438E+00
          0                 4           2             4    7     1       0.8247906603E-03       4    7    1         0.4373670699E-01      0.8067562781E-01
          0                 5           2             4    7     1       0.2897966748E-03       4    7    1         0.1536153698E-01      0.2830467406E-01
          0                 6           1             4    7     1       0.1018557930E-03       4    7    1         0.5397810603E-02      0.9938595893E-02
          0                 7           1             4    7     1       0.3581031592E-04       4    7    1         0.1897321399E-02      0.3490471848E-02

    ------------------------------------------------
       NWT REQUIRED            7 OUTER ITERATIONS 
       AND A TOTAL OF         12 INNER ITERATIONS.
    ------------------------------------------------

 NO OUTPUT CONTROL FOR STRESS PERIOD   48   TIME STEP   10
 
 SOLVING FOR HEAD 
                                                   Max.-Head-Change                         Max.-Flux-Residual
  Residual-Control   Outer-Iter.   Inner-Iter.     Column Row Layer    Maximum-Head-Change  Column Row Layer    Maximum-Flux-Residual          L2-NORM 
          0                 1           2             3    7     1       0.5244850674E-01       6    7    1         0.2571556858E+01      0.6618922851E+01
          0                 2           2             4    7     1       0.6569456285E-02       4    7    1         0.3492779893E+00      0.9263668007E+00
          0                 3           2             4    7     1       0.2311619671E-02       4    7    1         0.1223020246E+00      0.2365600842E+00
          0                 4           2             4    7     1       0.8136277583E-03       4    7    1         0.4307482432E-01      0.8182497009E-01
          0                 5           2             4    7     1       0.2864472142E-03       4    7    1         0.1516062586E-01      0.2872275734E-01
          0                 6           1             4    7     1       0.1008698085E-03       4    7    1         0.5337759174E-02      0.1009010096E-01
          0                 7           1             4    7     1       0.3552751487E-04       4    7    1         0.1879734896E-02      0.3545233505E-02

    ------------------------------------------------
       NWT REQUIRED            7 OUTER ITERATIONS 
       AND A TOTAL OF         12 INNER ITERATIONS.
    ------------------------------------------------

 NO OUTPUT CONTROL FOR STRESS PERIOD   48   TIME STEP   11
 
 SOLVING FOR HEAD 
                                                   Max.-Head-Change                         Max.-Flux-Residual
  Residual-Control   Outer-Iter.   Inner-Iter.     Column Row Layer    Maximum-Head-Change  Column Row Layer    Maximum-Flux-Residual          L2-NORM 
          0                 1           2             3    7     1       0.5193939136E-01       6    7    1         0.2509320614E+01      0.6512804948E+01
          0                 2           2             4    7     1       0.6471306846E-02       4    7    1         0.3435042213E+00      0.9250039681E+00
          0                 3           2             4    7     1       0.2281690016E-02       4    7    1         0.1205305650E+00      0.2396084611E+00
          0                 4           2             4    7     1       0.8046294763E-03       4    7    1         0.4253589108E-01      0.8299972161E-01
          0                 5           2             4    7     1       0.2837913503E-03       4    7    1         0.1499921294E-01      0.2914588255E-01
          0                 6           1             4    7     1       0.1001052276E-03       4    7    1         0.5290353619E-02      0.1024210979E-01
          0                 7           1             4    7     1       0.3531507930E-04       4    7    1         0.1866181346E-02      0.3599759714E-02

    ------------------------------------------------
       NWT REQUIRED            7 OUTER ITERATIONS 
       AND A TOTAL OF         12 INNER ITERATIONS.
    ------------------------------------------------

 NO OUTPUT CONTROL FOR STRESS PERIOD   48   TIME STEP   12
 
 SOLVING FOR HEAD 
                                                   Max.-Head-Change                         Max.-Flux-Residual
  Residual-Control   Outer-Iter.   Inner-Iter.     Column Row Layer    Maximum-Head-Change  Column Row Layer    Maximum-Flux-Residual          L2-NORM 
          0                 1           2             3    7     1       0.5143443884E-01       6    7    1         0.2450065542E+01      0.6414087999E+01
          0                 2           2             4    7     1       0.6391150871E-02       4    8    1         0.3407262695E+00      0.9243788108E+00
          0                 3           2             4    7     1       0.2257541086E-02       4    7    1         0.1190876145E+00      0.2426825270E+00
          0                 4           2             4    7     1       0.7974821007E-03       4    7    1         0.4210242316E-01      0.8419069958E-01
          0                 5           2             4    7     1       0.2817258268E-03       4    7    1         0.1487154039E-01      0.2963444971E-01
          0                 6           1             4    7     1       0.9952809009E-04       4    7    1         0.5253699106E-02      0.1039141005E-01

    ------------------------------------------------
       NWT REQUIRED            6 OUTER ITERATIONS 
       AND A TOTAL OF         11 INNER ITERATIONS.
    ------------------------------------------------

 NO OUTPUT CONTROL FOR STRESS PERIOD   48   TIME STEP   13
 
 SOLVING FOR HEAD 
                                                   Max.-Head-Change                         Max.-Flux-Residual
  Residual-Control   Outer-Iter.   Inner-Iter.     Column Row Layer    Maximum-Head-Change  Column Row Layer    Maximum-Flux-Residual          L2-NORM 
          0                 1           2             3    7     1       0.5093437201E-01       6    7    1         0.2393610159E+01      0.6322021844E+01
          0                 2           2             4    8     1       0.6416669172E-02       4    8    1         0.3430169428E+00      0.9242974799E+00
          0                 3           2             4    8     1       0.2260322487E-02       4    8    1         0.1193372758E+00      0.2457217721E+00
          0                 4           2             4    8     1       0.7960837349E-03       4    8    1         0.4213351799E-01      0.8531073754E-01
          0                 5           2             4    8     1       0.2803379228E-03       4    8    1         0.1483487748E-01      0.2997062647E-01
          0                 6           1             4    7     1       0.9911466379E-04       4    7    1         0.5226446612E-02      0.1053611072E-01

    ------------------------------------------------
       NWT REQUIRED            6 OUTER ITERATIONS 
       AND A TOTAL OF         11 INNER ITERATIONS.
    ------------------------------------------------

 NO OUTPUT CONTROL FOR STRESS PERIOD   48   TIME STEP   14
 
 SOLVING FOR HEAD 
                                                   Max.-Head-Change                         Max.-Flux-Residual
  Residual-Control   Outer-Iter.   Inner-Iter.     Column Row Layer    Maximum-Head-Change  Column Row Layer    Maximum-Flux-Residual          L2-NORM 
          0                 1           2             3    7     1       0.5044026565E-01       6    7    1         0.2339836550E+01      0.6235983779E+01
          0                 2           2             4    8     1       0.6452311963E-02       4    8    1         0.3449137007E+00      0.9245705811E+00
          0                 3           2             4    8     1       0.2272362795E-02       4    8    1         0.1199987334E+00      0.2486646282E+00
          0                 4           2             4    8     1       0.8001695889E-03       4    8    1         0.4235568972E-01      0.8640927210E-01
          0                 5           2             4    8     1       0.2817309058E-03       4    8    1         0.1491041080E-01      0.3036035571E-01
          0                 6           1             4    8     1       0.9918376997E-04       4    8    1         0.5249771688E-02      0.1067420911E-01

    ------------------------------------------------
       NWT REQUIRED            6 OUTER ITERATIONS 
       AND A TOTAL OF         11 INNER ITERATIONS.
    ------------------------------------------------

 NO OUTPUT CONTROL FOR STRESS PERIOD   48   TIME STEP   15
 
 SOLVING FOR HEAD 
                                                   Max.-Head-Change                         Max.-Flux-Residual
  Residual-Control   Outer-Iter.   Inner-Iter.     Column Row Layer    Maximum-Head-Change  Column Row Layer    Maximum-Flux-Residual          L2-NORM 
          0                 1           2             3    7     1       0.4995243980E-01       6    7    1         0.2288599309E+01      0.6155396048E+01
          0                 2           2             4    8     1       0.6481526712E-02       4    8    1         0.3464587308E+00      0.9250622160E+00
          0                 3           2             4    8     1       0.2282249548E-02       4    8    1         0.1205416292E+00      0.2514750577E+00
          0                 4           2             4    8     1       0.8035322476E-03       4    8    1         0.4253818073E-01      0.8745258528E-01
          0                 5           2             4    8     1       0.2828804312E-03       4    8    1         0.1497260904E-01      0.3072950232E-01
          0                 6           1             4    8     1       0.9957873008E-04       4    8    1         0.5271056332E-02      0.1080472428E-01

    ------------------------------------------------
       NWT REQUIRED            6 OUTER ITERATIONS 
       AND A TOTAL OF         11 INNER ITERATIONS.
    ------------------------------------------------

 NO OUTPUT CONTROL FOR STRESS PERIOD   48   TIME STEP   16
 
 SOLVING FOR HEAD 
                                                   Max.-Head-Change                         Max.-Flux-Residual
  Residual-Control   Outer-Iter.   Inner-Iter.     Column Row Layer    Maximum-Head-Change  Column Row Layer    Maximum-Flux-Residual          L2-NORM 
          0                 1           2             3    7     1       0.4947159797E-01       6    7    1         0.2239767066E+01      0.6079751210E+01
          0                 2           2             4    8     1       0.6505062906E-02       4    8    1         0.3476934984E+00      0.9256697209E+00
          0                 3           2             4    8     1       0.2290231234E-02       4    8    1         0.1209797460E+00      0.2541304553E+00
          0                 4           2             4    8     1       0.8062542021E-03       4    8    1         0.4268555872E-01      0.8843428503E-01
          0                 5           2             4    8     1       0.2838139213E-03       4    8    1         0.1502298907E-01      0.3107621383E-01
          0                 6           1             4    8     1       0.9990065175E-04       4    8    1         0.5288353781E-02      0.1092712182E-01

    ------------------------------------------------
       NWT REQUIRED            6 OUTER ITERATIONS 
       AND A TOTAL OF         11 INNER ITERATIONS.
    ------------------------------------------------

 NO OUTPUT CONTROL FOR STRESS PERIOD   48   TIME STEP   17
 
 SOLVING FOR HEAD 
                                                   Max.-Head-Change                         Max.-Flux-Residual
  Residual-Control   Outer-Iter.   Inner-Iter.     Column Row Layer    Maximum-Head-Change  Column Row Layer    Maximum-Flux-Residual          L2-NORM 
          0                 1           2             3    7     1       0.4899785226E-01       6    7    1         0.2193208280E+01      0.6008594009E+01
          0                 2           2             4    8     1       0.6523653383E-02       4    8    1         0.3486586900E+00      0.9263128826E+00
          0                 3           2             4    8     1       0.2296549664E-02       4    8    1         0.1213265462E+00      0.2566166774E+00
          0                 4           2             4    8     1       0.8084153356E-03       4    8    1         0.4280226364E-01      0.8935065427E-01
          0                 5           2             4    8     1       0.2845578021E-03       4    8    1         0.1506301827E-01      0.3139941497E-01
          0                 6           1             4    8     1       0.1001582904E-03       4    8    1         0.5302149615E-02      0.1104107854E-01
          0                 7           1             4    8     1       0.3525231043E-04       4    8    1         0.1866223806E-02      0.3882894360E-02

    ------------------------------------------------
       NWT REQUIRED            7 OUTER ITERATIONS 
       AND A TOTAL OF         12 INNER ITERATIONS.
    ------------------------------------------------

 NO OUTPUT CONTROL FOR STRESS PERIOD   48   TIME STEP   18
 
 SOLVING FOR HEAD 
                                                   Max.-Head-Change                         Max.-Flux-Residual
  Residual-Control   Outer-Iter.   Inner-Iter.     Column Row Layer    Maximum-Head-Change  Column Row Layer    Maximum-Flux-Residual          L2-NORM 
          0                 1           2             3    7     1       0.4853233066E-01       6    7    1         0.2148842160E+01      0.5941548313E+01
          0                 2           2             4    8     1       0.6537421521E-02       4    8    1         0.3493621048E+00      0.9274899702E+00
          0                 3           2             4    8     1       0.2301237429E-02       4    8    1         0.1215841995E+00      0.2589144133E+00
          0                 4           2             4    8     1       0.8100235789E-03       4    8    1         0.4288885869E-01      0.9019272515E-01
          0                 5           2             4    8     1       0.2851137069E-03       4    8    1         0.1509283005E-01      0.3169608805E-01
          0                 6           1             4    8     1       0.1003518426E-03       4    8    1         0.5312469575E-02      0.1114554897E-01
          0                 7           1             4    8     1       0.3532017231E-04       4    8    1         0.1869823102E-02      0.3919695504E-02

    ------------------------------------------------
       NWT REQUIRED            7 OUTER ITERATIONS 
       AND A TOTAL OF         12 INNER ITERATIONS.
    ------------------------------------------------

 NO OUTPUT CONTROL FOR STRESS PERIOD   48   TIME STEP   19
 
 SOLVING FOR HEAD 
                                                   Max.-Head-Change                         Max.-Flux-Residual
  Residual-Control   Outer-Iter.   Inner-Iter.     Column Row Layer    Maximum-Head-Change  Column Row Layer    Maximum-Flux-Residual          L2-NORM 
          0                 1           2             3    7     1       0.4807435619E-01       6    7    1         0.2104540854E+01      0.5877459978E+01
          0                 2           2             4    8     1       0.6547174416E-02       4    8    1         0.3498475234E+00      0.9273435527E+00
          0                 3           2             4    8     1       0.2304569348E-02       4    8    1         0.1217676355E+00      0.2610160941E+00
          0                 4           2             4    8     1       0.8111727453E-03       4    8    1         0.4295042684E-01      0.9096814574E-01
          0                 5           2             4    8     1       0.2855137410E-03       4    8    1         0.1511416067E-01      0.3196917259E-01
          0                 6           1             4    8     1       0.1004923227E-03       4    8    1         0.5319908201E-02      0.1124164856E-01
          0                 7           1             4    8     1       0.3536991240E-04       4    8    1         0.1872440713E-02      0.3953527181E-02

    ------------------------------------------------
       NWT REQUIRED            7 OUTER ITERATIONS 
       AND A TOTAL OF         12 INNER ITERATIONS.
    ------------------------------------------------

 NO OUTPUT CONTROL FOR STRESS PERIOD   48   TIME STEP   20
 
 SOLVING FOR HEAD 
                                                   Max.-Head-Change                         Max.-Flux-Residual
  Residual-Control   Outer-Iter.   Inner-Iter.     Column Row Layer    Maximum-Head-Change  Column Row Layer    Maximum-Flux-Residual          L2-NORM 
          0                 1           2             3    7     1       0.4762455725E-01       6    7    1         0.2061931788E+01      0.5816613623E+01
          0                 2           2             4    8     1       0.6553443201E-02       4    8    1         0.3501443486E+00      0.9276687346E+00
          0                 3           2             4    8     1       0.2306721103E-02       4    8    1         0.1218866195E+00      0.2629397393E+00
          0                 4           2             4    8     1       0.8119209465E-03       4    8    1         0.4299019559E-01      0.9167459659E-01
          0                 5           2             4    8     1       0.2857771267E-03       4    8    1         0.1512807781E-01      0.3221782879E-01
          0                 6           1             4    8     1       0.1005860898E-03       4    8    1         0.5324818641E-02      0.1132911413E-01
          0                 7           1             4    8     1       0.3540363412E-04       4    8    1         0.1874193433E-02      0.3984306678E-02

    ------------------------------------------------
       NWT REQUIRED            7 OUTER ITERATIONS 
       AND A TOTAL OF         12 INNER ITERATIONS.
    ------------------------------------------------

 NO OUTPUT CONTROL FOR STRESS PERIOD   48   TIME STEP   21
 
 SOLVING FOR HEAD 
                                                   Max.-Head-Change                         Max.-Flux-Residual
  Residual-Control   Outer-Iter.   Inner-Iter.     Column Row Layer    Maximum-Head-Change  Column Row Layer    Maximum-Flux-Residual          L2-NORM 
          0                 1           2             3    7     1       0.4718259082E-01       6    7    1         0.2021338298E+01      0.5797012432E+01
          0                 2           2             4    8     1       0.6213167900E-02       4    8    1         0.3391695195E+00      0.8968559132E+00
          0                 3           2             4    7     1       0.2181913531E-02       4    8    1         0.1148409789E+00      0.2411886739E+00
          0                 4           2             4    7     1       0.7746881130E-03       4    7    1         0.4074588192E-01      0.8130874333E-01
          0                 5           2             4    7     1       0.2747729286E-03       4    7    1         0.1446177242E-01      0.2800612377E-01
          0                 6           1             4    7     1       0.9737487237E-04       4    7    1         0.5128314107E-02      0.9718539573E-02

    ------------------------------------------------
       NWT REQUIRED            6 OUTER ITERATIONS 
       AND A TOTAL OF         11 INNER ITERATIONS.
    ------------------------------------------------

 NO OUTPUT CONTROL FOR STRESS PERIOD   48   TIME STEP   22
 
 SOLVING FOR HEAD 
                                                   Max.-Head-Change                         Max.-Flux-Residual
  Residual-Control   Outer-Iter.   Inner-Iter.     Column Row Layer    Maximum-Head-Change  Column Row Layer    Maximum-Flux-Residual          L2-NORM 
          0                 1           2             3    7     1       0.4674735843E-01       6    7    1         0.1980783712E+01      0.5819992562E+01
          0                 2           2             5    8     1      -0.7239633602E-02       5    8    1        -0.4031300633E+00      0.9316573155E+00
          0                 3           2             4    7     1       0.2168118783E-02       4    7    1         0.1139659201E+00      0.2494246490E+00
          0                 4           2             4    7     1       0.7686779724E-03       4    7    1         0.4047546258E-01      0.8215863503E-01
          0                 5           2             4    7     1       0.2722524023E-03       4    7    1         0.1434500608E-01      0.2786179132E-01
          0                 6           1             4    7     1       0.9634841464E-04       4    7    1         0.5079682086E-02      0.9576205775E-02

    ------------------------------------------------
       NWT REQUIRED            6 OUTER ITERATIONS 
       AND A TOTAL OF         11 INNER ITERATIONS.
    ------------------------------------------------

 NO OUTPUT CONTROL FOR STRESS PERIOD   48   TIME STEP   23
 
 SOLVING FOR HEAD 
                                                   Max.-Head-Change                         Max.-Flux-Residual
  Residual-Control   Outer-Iter.   Inner-Iter.     Column Row Layer    Maximum-Head-Change  Column Row Layer    Maximum-Flux-Residual          L2-NORM 
          0                 1           2             3    7     1       0.4631838107E-01       6    7    1         0.1939996242E+01      0.5664915868E+01
          0                 2           2             5    8     1      -0.6196727815E-02       5    8    1        -0.3454311364E+00      0.8956894043E+00
          0                 3           2             4    7     1       0.2153411780E-02       4    7    1         0.1132509375E+00      0.2405138440E+00
          0                 4           2             4    7     1       0.7630457481E-03       4    7    1         0.4019510836E-01      0.8003997163E-01
          0                 5           2             4    7     1       0.2701400957E-03       4    7    1         0.1423827578E-01      0.2733546942E-01
          0                 6           1             4    7     1       0.9556773604E-04       4    7    1         0.5039813933E-02      0.9437584995E-02

    ------------------------------------------------
       NWT REQUIRED            6 OUTER ITERATIONS 
       AND A TOTAL OF         11 INNER ITERATIONS.
    ------------------------------------------------

 NO OUTPUT CONTROL FOR STRESS PERIOD   48   TIME STEP   24
 
 SOLVING FOR HEAD 
                                                   Max.-Head-Change                         Max.-Flux-Residual
  Residual-Control   Outer-Iter.   Inner-Iter.     Column Row Layer    Maximum-Head-Change  Column Row Layer    Maximum-Flux-Residual          L2-NORM 
          0                 1           2             3    7     1       0.4589548170E-01       6    7    1         0.1899344859E+01      0.5529006864E+01
          0                 2           2             4    7     1       0.6028503896E-02       4    7    1         0.3182888112E+00      0.8656325415E+00
          0                 3           2             4    7     1       0.2137494975E-02       4    7    1         0.1124523847E+00      0.2333520034E+00
          0                 4           2             4    7     1       0.7571390591E-03       4    7    1         0.3989416343E-01      0.7835551854E-01
          0                 5           2             4    7     1       0.2679783835E-03       4    7    1         0.1412703743E-01      0.2691854952E-01
          0                 6           1             4    7     1       0.9478445578E-04       4    7    1         0.4999214477E-02      0.9327722956E-02

    ------------------------------------------------
       NWT REQUIRED            6 OUTER ITERATIONS 
       AND A TOTAL OF         11 INNER ITERATIONS.
    ------------------------------------------------

 NO OUTPUT CONTROL FOR STRESS PERIOD   48   TIME STEP   25
 
 SOLVING FOR HEAD 
                                                   Max.-Head-Change                         Max.-Flux-Residual
  Residual-Control   Outer-Iter.   Inner-Iter.     Column Row Layer    Maximum-Head-Change  Column Row Layer    Maximum-Flux-Residual          L2-NORM 
          0                 1           2             3    7     1       0.4547808038E-01       6    7    1         0.1859079854E+01      0.5409221875E+01
          0                 2           2             4    7     1       0.5983623705E-02       4    7    1         0.3160110698E+00      0.8410932279E+00
          0                 3           2             4    7     1       0.2120966008E-02       4    7    1         0.1116059751E+00      0.2276559232E+00
          0                 4           2             4    7     1       0.7511361155E-03       4    7    1         0.3958335636E-01      0.7702546294E-01
          0                 5           2             4    7     1       0.2658197556E-03       4    7    1         0.1401448228E-01      0.2658982159E-01
          0                 6           1             4    7     1       0.9401378112E-04       4    7    1         0.4958820518E-02      0.9240998627E-02

    ------------------------------------------------
       NWT REQUIRED            6 OUTER ITERATIONS 
       AND A TOTAL OF         11 INNER ITERATIONS.
    ------------------------------------------------

 NO OUTPUT CONTROL FOR STRESS PERIOD   48   TIME STEP   26
 
 SOLVING FOR HEAD 
                                                   Max.-Head-Change                         Max.-Flux-Residual
  Residual-Control   Outer-Iter.   Inner-Iter.     Column Row Layer    Maximum-Head-Change  Column Row Layer    Maximum-Flux-Residual          L2-NORM 
          0                 1           2             3    7     1       0.4506617625E-01       6    7    1         0.1819475734E+01      0.5303331192E+01
          0                 2           2             4    7     1       0.5937039978E-02       4    7    1         0.3136024267E+00      0.8209805263E+00
          0                 3           2             4    7     1       0.2104150209E-02       4    7    1         0.1107318997E+00      0.2231595352E+00
          0                 4           2             4    7     1       0.7451281593E-03       4    7    1         0.3926845231E-01      0.7598203227E-01
          0                 5           2             4    7     1       0.2636889769E-03       4    7    1         0.1390221692E-01      0.2633179563E-01
          0                 6           1             4    7     1       0.9326209689E-04       4    7    1         0.4919063890E-02      0.9172702856E-02

    ------------------------------------------------
       NWT REQUIRED            6 OUTER ITERATIONS 
       AND A TOTAL OF         11 INNER ITERATIONS.
    ------------------------------------------------

 NO OUTPUT CONTROL FOR STRESS PERIOD   48   TIME STEP   27
 
 SOLVING FOR HEAD 
                                                   Max.-Head-Change                         Max.-Flux-Residual
  Residual-Control   Outer-Iter.   Inner-Iter.     Column Row Layer    Maximum-Head-Change  Column Row Layer    Maximum-Flux-Residual          L2-NORM 
          0                 1           2             3    7     1       0.4465497225E-01       6    7    1         0.1780705642E+01      0.5188863249E+01
          0                 2           2             4    7     1       0.5621338540E-02       4    7    1         0.3025793363E+00      0.7695359819E+00
          0                 3           2             4    7     1       0.1949814352E-02       4    7    1         0.1042799403E+00      0.2008850942E+00
          0                 4           2             4    7     1       0.6776750815E-03       4    7    1         0.3622085757E-01      0.6738589199E-01
          0                 5           2             4    7     1       0.2359128769E-03       4    7    1         0.1259301541E-01      0.2311374619E-01
          0                 6           1             4    7     1       0.8223222289E-04       4    7    1         0.4385384894E-02      0.7982875938E-02

    ------------------------------------------------
       NWT REQUIRED            6 OUTER ITERATIONS 
       AND A TOTAL OF         11 INNER ITERATIONS.
    ------------------------------------------------

 NO OUTPUT CONTROL FOR STRESS PERIOD   48   TIME STEP   28
 
 SOLVING FOR HEAD 
                                                   Max.-Head-Change                         Max.-Flux-Residual
  Residual-Control   Outer-Iter.   Inner-Iter.     Column Row Layer    Maximum-Head-Change  Column Row Layer    Maximum-Flux-Residual          L2-NORM 
          0                 1           2             3    7     1       0.4422972320E-01       4    8    1        -0.1874530734E+01      0.5356458260E+01
          0                 2           2             4    8     1      -0.9164853324E-02       4    8    1        -0.4968074812E+00      0.8543750440E+00
          0                 3           2             4    8     1      -0.2471268988E-02       4    8    1        -0.1351545466E+00      0.2175496044E+00
          0                 4           2             4    8     1      -0.6643796609E-03       4    8    1        -0.3635823597E-01      0.6730324568E-01
          0                 5           2             4    6     1       0.2227654703E-03       4    6    1         0.1185055053E-01      0.2160290760E-01
          0                 6           1             4    6     1       0.7786466680E-04       4    6    1         0.4144866578E-02      0.7090291352E-02

    ------------------------------------------------
       NWT REQUIRED            6 OUTER ITERATIONS 
       AND A TOTAL OF         11 INNER ITERATIONS.
    ------------------------------------------------

 NO OUTPUT CONTROL FOR STRESS PERIOD   48   TIME STEP   29
 
 SOLVING FOR HEAD 
                                                   Max.-Head-Change                         Max.-Flux-Residual
  Residual-Control   Outer-Iter.   Inner-Iter.     Column Row Layer    Maximum-Head-Change  Column Row Layer    Maximum-Flux-Residual          L2-NORM 
          0                 1           2             3    7     1       0.4377867007E-01       5    7    1        -0.2001907650E+01      0.5572704339E+01
          0                 2           2             5    7     1      -0.9274193740E-02       5    7    1        -0.5149621740E+00      0.9579856250E+00
          0                 3           2             5    7     1      -0.2418189303E-02       5    7    1        -0.1355470986E+00      0.2424097243E+00
          0                 4           2             4    6     1       0.6307488069E-03       5    7    1        -0.3524713025E-01      0.7090203579E-01
          0                 5           2             4    6     1       0.2193834663E-03       4    6    1         0.1172349215E-01      0.2156431935E-01
          0                 6           1             4    6     1       0.7623353862E-04       4    6    1         0.4076654209E-02      0.6762302551E-02

    ------------------------------------------------
       NWT REQUIRED            6 OUTER ITERATIONS 
       AND A TOTAL OF         11 INNER ITERATIONS.
    ------------------------------------------------

 NO OUTPUT CONTROL FOR STRESS PERIOD   48   TIME STEP   30



 STREAM LISTING     PERIOD     48   STEP       30

 LAYER ROW COL. STREAM  RCH.  FLOW INTO     FLOW TO   FLOW OUT OF   OVRLND.     DIRECT     STREAM       STREAM     STREAM     STREAM   STREAMBED  STREAMBED
                SEG.NO.  NO.  STRM. RCH.    AQUIFER    STRM. RCH.    RUNOFF     PRECIP       ET          HEAD       DEPTH      WIDTH   CONDCTNC.   GRADIENT

   1    1    1     1     1    1.5750E+01  1.9239E-01   1.5557E+01  0.000E+00  0.000E+00  0.000E+00  1.09407E+03  1.025E+00  1.062E+01  4.780E-02  1.342E+00
   1    2    2     1     2    1.5557E+01  2.9659E-01   1.5261E+01  0.000E+00  0.000E+00  0.000E+00  1.08908E+03  1.020E+00  1.054E+01  7.378E-02  1.340E+00
   1    3    3     1     3    1.5261E+01  2.5163E-01   1.5009E+01  0.000E+00  0.000E+00  0.000E+00  1.08343E+03  1.015E+00  1.045E+01  6.268E-02  1.338E+00
   1    3    4     1     4    1.5009E+01  2.3063E-01   1.4778E+01  0.000E+00  0.000E+00  0.000E+00  1.07842E+03  1.010E+00  1.036E+01  5.751E-02  1.337E+00
   1    4    5     2     1    1.2778E+01  2.9653E-01   1.2482E+01  0.000E+00  0.000E+00  0.000E+00  1.07274E+03  8.017E-01  1.200E+01  7.800E-02  1.267E+00
   1    5    6     2     2    1.2482E+01  2.2750E-01   1.2254E+01  0.000E+00  0.000E+00  0.000E+00  1.06730E+03  7.916E-01  1.200E+01  6.000E-02  1.264E+00
   1    6    6     2     3    1.2254E+01  2.2697E-01   1.2027E+01  0.000E+00  0.000E+00  0.000E+00  1.06258E+03  7.829E-01  1.200E+01  6.000E-02  1.261E+00
   1    7    6     2     4    1.2027E+01  2.2644E-01   1.1801E+01  0.000E+00  0.000E+00  0.000E+00  1.05785E+03  7.741E-01  1.200E+01  6.000E-02  1.258E+00
   1    8    6     2     5    1.1801E+01  2.2591E-01   1.1575E+01  0.000E+00  0.000E+00  0.000E+00  1.05312E+03  7.652E-01  1.200E+01  6.000E-02  1.255E+00
   1    3    5     3     1    2.0000E+00  2.8252E-01   1.7175E+00  0.000E+00  0.000E+00  0.000E+00  1.07555E+03  1.909E+00  9.636E+00  7.227E-02  1.955E+00
   1    3    6     3     2    1.7175E+00  2.4905E-01   1.4684E+00  0.000E+00  0.000E+00  0.000E+00  1.07264E+03  1.727E+00  8.909E+00  6.682E-02  1.864E+00
   1    3    7     3     3    1.4684E+00  1.9718E-01   1.2712E+00  0.000E+00  0.000E+00  0.000E+00  1.06987E+03  1.555E+00  8.218E+00  5.547E-02  1.777E+00
   1    4    8     3     4    1.2712E+00  2.2567E-01   1.0456E+00  0.000E+00  0.000E+00  0.000E+00  1.06682E+03  1.364E+00  7.455E+00  6.709E-02  1.682E+00
   1    5    8     3     5    1.0456E+00  1.5790E-01   8.8768E-01  0.000E+00  0.000E+00  0.000E+00  1.06362E+03  1.164E+00  6.655E+00  4.991E-02  1.582E+00
   1    6    8     3     6    8.8768E-01  5.5980E-02   8.3170E-01  0.000E+00  0.000E+00  0.000E+00  1.06158E+03  1.036E+00  6.145E+00  1.844E-02  1.518E+00
   1    5   10     4     1    1.0000E+01  9.0919E-02   9.9091E+00  0.000E+00  0.000E+00  0.000E+00  1.07836E+03  6.368E-01  1.000E+01  2.500E-02  1.212E+00
   1    5    9     4     2    9.9091E+00  1.8158E-01   9.7275E+00  0.000E+00  0.000E+00  0.000E+00  1.07154E+03  6.315E-01  1.000E+01  5.000E-02  1.211E+00
   1    6    8     4     3    9.7275E+00  1.2689E-01   9.6006E+00  0.000E+00  0.000E+00  0.000E+00  1.06381E+03  6.256E-01  1.000E+01  3.500E-02  1.209E+00
   1    6    8     5     1    1.0432E+01  2.2686E-01   1.0205E+01  0.000E+00  0.000E+00  0.000E+00  1.05868E+03  6.790E-01  1.542E+01  6.166E-02  1.226E+00
   1    7    7     5     2    1.0205E+01  2.7894E-01   9.9265E+00  0.000E+00  0.000E+00  0.000E+00  1.05417E+03  6.732E-01  1.519E+01  7.594E-02  1.224E+00
   1    8    7     5     3    9.9265E+00  1.9221E-01   9.7343E+00  0.000E+00  0.000E+00  0.000E+00  1.04992E+03  6.676E-01  1.497E+01  5.241E-02  1.223E+00
   1    8    6     5     4    9.7343E+00  1.3577E-01   9.5985E+00  0.000E+00  0.000E+00  0.000E+00  1.04691E+03  6.637E-01  1.482E+01  3.706E-02  1.221E+00
   1    9    6     6     1    2.1173E+01  2.4608E-01   2.0927E+01  0.000E+00  0.000E+00  0.000E+00  1.04383E+03  1.101E+00  1.200E+01  6.000E-02  1.367E+00
   1   10    7     6     2    2.0927E+01  2.4562E-01   2.0682E+01  0.000E+00  0.000E+00  0.000E+00  1.03928E+03  1.094E+00  1.200E+01  6.000E-02  1.365E+00
   1   11    7     6     3    2.0682E+01  2.4515E-01   2.0437E+01  0.000E+00  0.000E+00  0.000E+00  1.03472E+03  1.086E+00  1.200E+01  6.000E-02  1.362E+00
   1   12    7     6     4    2.0437E+01  2.4468E-01   2.0192E+01  0.000E+00  0.000E+00  0.000E+00  1.03017E+03  1.078E+00  1.200E+01  6.000E-02  1.359E+00
   1   13    7     6     5    2.0192E+01  4.9583E-03   2.0187E+01  0.000E+00  0.000E+00  0.000E+00  1.02698E+03  1.074E+00  1.200E+01  2.400E-02  6.886E-02
   1   14    9     7     1    1.5000E+02  1.3771E+00   1.4862E+02  0.000E+00  0.000E+00  0.000E+00  1.03987E+03  2.288E+00  5.529E+01  5.593E-01  8.207E-01
   1   13    8     7     2    1.4862E+02  1.9402E+00   1.4668E+02  0.000E+00  0.000E+00  0.000E+00  1.03478E+03  2.279E+00  5.525E+01  6.147E-01  1.052E+00
   1   13    7     7     3    1.4668E+02  1.6260E+00   1.4506E+02  0.000E+00  0.000E+00  0.000E+00  1.02969E+03  2.269E+00  5.521E+01  5.584E-01  9.707E-01
   1   13    6     8     1    1.6524E+02  1.0439E+00   1.6420E+02  0.000E+00  0.000E+00  0.000E+00  1.02479E+03  2.917E+00  4.230E+01  4.311E-01  8.072E-01
   1   13    5     8     2    1.6420E+02  2.8910E-01   1.6391E+02  0.000E+00  0.000E+00  0.000E+00  1.01854E+03  2.913E+00  4.224E+01  4.304E-01  2.239E-01
   1   13    4     8     3    1.6391E+02 -2.0503E+00   1.6596E+02  0.000E+00  0.000E+00  0.000E+00  1.01229E+03  2.919E+00  4.232E+01  4.313E+00 -1.585E-01
   1   13    3     8     4    1.6596E+02 -3.4552E+00   1.6942E+02  0.000E+00  0.000E+00  0.000E+00  1.00606E+03  2.937E+00  4.259E+01  4.340E+00 -2.654E-01
   1   13    2     8     5    1.6942E+02 -2.5235E+00   1.7194E+02  0.000E+00  0.000E+00  0.000E+00  9.99832E+02  2.957E+00  4.287E+01  4.369E+00 -1.925E-01
   1   13    1     8     6    1.7194E+02 -1.9634E+00   1.7390E+02  0.000E+00  0.000E+00  0.000E+00  9.94846E+02  2.971E+00  4.308E+01  2.634E+00 -2.485E-01
   1    8    6     9     1    0.0000E+00  0.0000E+00   0.0000E+00  0.000E+00  0.000E+00  0.000E+00  1.07875E+03  0.000E+00  4.000E+00  0.000E+00  1.000E+00
   1    8    5     9     2    0.0000E+00  0.0000E+00   0.0000E+00  0.000E+00  0.000E+00  0.000E+00  1.07825E+03  0.000E+00  4.000E+00  0.000E+00  1.000E+00





UNSATURATED ZONE PACKAGE VOLUMETRIC BUDGET FOR  TIME STEP    30 STRESS PERIOD   48
  ------------------------------------------------------------------------------



     CUMULATIVE VOLUMES      L**3       RATES FOR THIS TIME STEP      L**3/T
     ------------------                 ------------------------

           IN:                                      IN:
           ---                                      ---
        INFILTRATION = 13145778743.1861          INFILTRATION =           0.8475

          OUT:                                     OUT:
          ----                                     ----
              UZF ET =  1712002124.0350                UZF ET =           0.7500
        UZF RECHARGE = 11002728202.4584          UZF RECHARGE =          13.7706

            IN - OUT =   431048416.6927              IN - OUT =         -13.6731

          STORAGE:                                 STORAGE:
          --------                                 --------
      STORAGE CHANGE =   432550187.4023        STORAGE CHANGE =         -13.6731

 PERCENT DISCREPANCY IS DIFFERENCE BETWEEN IN-OUT MINUS CHANGE IN STORAGE
 DIVIDED BY THE AVERAGE OF IN AND OUT TIMES 100

 PERCENT DISCREPANCY =          -0.00     PERCENT DISCREPANCY =          -0.00






1
  VOLUMETRIC BUDGET FOR AGRICULTURAL FIELDS AT  END OF TIME STEP   30, STRESS PERIOD  48
  ------------------------------------------------------------------------------

     CUMULATIVE VOLUMES      L**3       RATES FOR THIS TIME STEP      L**3/T
     ------------------                 ------------------------

           IN:                                      IN:
           ---                                      ---
               AG WELLS  = 11826811904.0000                 AG WELLS  =           0.0000
      DIVERSION SEGMENTS =  1214144000.0000        DIVERSION SEGMENTS =           0.0000
       IRRIGATION PONDS  =           0.0000         IRRIGATION PONDS  =           0.0000
           GW IRRIGATION =           0.0000             GW IRRIGATION =           0.0000
           SW IRRIGATION =           0.0000             SW IRRIGATION =           0.0000
        SYSTEM LOSSES GW =           0.0000          SYSTEM LOSSES GW =           0.0000
        SYSTEM LOSSES SW =           0.0000          SYSTEM LOSSES SW =           0.0000

                TOTAL IN = 13040955392.0000                  TOTAL IN =           0.0000

          OUT:                                     OUT:
          ----                                     ----
               AG WELLS  =           0.0000                 AG WELLS  =           0.0000
      DIVERSION SEGMENTS =           0.0000        DIVERSION SEGMENTS =           0.0000
       IRRIGATION PONDS  =           0.0000         IRRIGATION PONDS  =           0.0000
           GW IRRIGATION = 11826811904.0000             GW IRRIGATION =           0.0000
           SW IRRIGATION =  1214164096.0000             SW IRRIGATION =           0.0000
        SYSTEM LOSSES GW =           0.0000          SYSTEM LOSSES GW =           0.0000
        SYSTEM LOSSES SW =           0.0000          SYSTEM LOSSES SW =           0.0000

               TOTAL OUT = 13040975872.0000                 TOTAL OUT =           0.0000

                IN - OUT =      -20480.0000                  IN - OUT =           0.0000

     PERCENT DISCREPANCY =          -0.00         PERCENT DISCREPANCY =           0.00



1
  VOLUMETRIC BUDGET FOR ENTIRE MODEL AT END OF TIME STEP   30, STRESS PERIOD  48
  ------------------------------------------------------------------------------

     CUMULATIVE VOLUMES      L**3       RATES FOR THIS TIME STEP      L**3/T
     ------------------                 ------------------------

           IN:                                      IN:
           ---                                      ---
             STORAGE     = 10147783680.0000               STORAGE     =           8.3154
       CONSTANT HEAD     =           0.0000         CONSTANT HEAD     =           0.0000
     HEAD DEP BOUNDS     =    35504448.0000       HEAD DEP BOUNDS     =           0.2886
      STREAM LEAKAGE     =  1528067712.0000        STREAM LEAKAGE     =          11.8389
        UZF RECHARGE     = 11002723328.0000          UZF RECHARGE     =          13.7706
               GW ET     =           0.0000                 GW ET     =           0.0000
     SURFACE LEAKAGE     =           0.0000       SURFACE LEAKAGE     =           0.0000
           AG WELLS      =           0.0000             AG WELLS      =           0.0000

                TOTAL IN = 22714079232.0000                  TOTAL IN =          34.2136

          OUT:                                     OUT:
          ----                                     ----
             STORAGE     =  9589013504.0000               STORAGE     =          23.9308
       CONSTANT HEAD     =           0.0000         CONSTANT HEAD     =           0.0000
     HEAD DEP BOUNDS     =    35914368.0000       HEAD DEP BOUNDS     =           0.2885
      STREAM LEAKAGE     =  1260665728.0000        STREAM LEAKAGE     =           9.9925
        UZF RECHARGE     =           0.0000          UZF RECHARGE     =           0.0000
               GW ET     =     1532757.2500                 GW ET     =           0.0000
     SURFACE LEAKAGE     =           0.0000       SURFACE LEAKAGE     =           0.0000
           AG WELLS      = 11826811904.0000             AG WELLS      =           0.0000

               TOTAL OUT = 22713937920.0000                 TOTAL OUT =          34.2118

                IN - OUT =      141312.0000                  IN - OUT =       1.7738E-03

     PERCENT DISCREPANCY =           0.00         PERCENT DISCREPANCY =           0.01






         TIME SUMMARY AT END OF TIME STEP   30 IN STRESS PERIOD   48
                    SECONDS     MINUTES      HOURS       DAYS        YEARS
                    -----------------------------------------------------------
   TIME STEP LENGTH  87667.      1461.1      24.352      1.0147     2.77799E-03
 STRESS PERIOD TIME 2.63000E+06  43833.      730.56      30.440     8.33397E-02
         TOTAL TIME 1.23695E+08 2.06158E+06  34360.      1431.7      3.9197    
1
1
                            STRESS PERIOD NO.   49, LENGTH =   2630000.    
                            -----------------------------------------------

                              NUMBER OF TIME STEPS =    30

                               MULTIPLIER FOR DELT =     1.000

                            INITIAL TIME STEP SIZE =   87666.66    

 REUSING NON-PARAMETER GHB CELLS FROM LAST STRESS PERIOD

      2 GHB CELLS

 REUSING STREAM SEGMENT DATA FROM LAST STRESS PERIOD



            AREAL INFILTRATION RATE
 READING ON UNIT   19 WITH FORMAT: (FREE)              

            1           2           3           4           5           6           7           8           9          10
 ........................................................................................................................
   1   1.0000E-10  2.0000E-10   0.000       0.000       0.000       0.000       0.000       0.000       0.000       0.000    
   2   2.0000E-10  1.0000E-10  2.0000E-10   0.000       0.000      8.0000E-10  8.0000E-10  5.0000E-10   0.000       0.000    
   3    0.000      5.0000E-10  1.0000E-10  1.0000E-10  8.0000E-10  8.0000E-10  5.0000E-10  5.0000E-10   0.000       0.000    
   4   8.0000E-10  5.0000E-10  1.0000E-10  1.0000E-10  1.0000E-10  1.0000E-10  1.0000E-10  1.0000E-10  2.0000E-10   0.000    
   5   8.0000E-10  5.0000E-10  1.0000E-10  1.0000E-10  1.0000E-10  1.0000E-10  1.0000E-10  1.0000E-10  1.0000E-10  1.0000E-10
   6   8.0000E-10  5.0000E-10  5.0000E-10  2.0000E-10  2.0000E-10  1.0000E-10  1.0000E-10  1.0000E-10  1.0000E-10  5.0000E-10
   7   8.0000E-10  5.0000E-10  5.0000E-10  2.0000E-10  2.0000E-10  1.0000E-10  1.0000E-10  2.0000E-10  2.0000E-10   0.000    
   8    0.000      5.0000E-10  5.0000E-10  2.0000E-10  2.0000E-10  1.0000E-10  1.0000E-10  2.0000E-10  5.0000E-10   0.000    
   9    0.000      5.0000E-10  5.0000E-10  2.0000E-10  2.0000E-10  1.0000E-10  1.0000E-10  2.0000E-10  5.0000E-10   0.000    
  10    0.000      5.0000E-10  5.0000E-10  2.0000E-10  2.0000E-10  1.0000E-10  1.0000E-10  2.0000E-10  5.0000E-10  8.0000E-10
  11    0.000      1.0000E-10  1.0000E-10  1.0000E-10  1.0000E-10  1.0000E-10  1.0000E-10  2.0000E-10  5.0000E-10   0.000    
  12   1.0000E-10  1.0000E-10  1.0000E-10  1.0000E-10  1.0000E-10  1.0000E-10  1.0000E-10  1.0000E-10  2.0000E-10   0.000    
  13   1.0000E-10  1.0000E-10  2.0000E-10  2.0000E-10  2.0000E-10  2.0000E-10  2.0000E-10  1.0000E-10  1.0000E-10   0.000    
  14    0.000      2.0000E-10  5.0000E-10  5.0000E-10  5.0000E-10  5.0000E-10  5.0000E-10  2.0000E-10  1.0000E-10   0.000    
  15    0.000       0.000      8.0000E-10  8.0000E-10  8.0000E-10  8.0000E-10   0.000       0.000       0.000       0.000    

                  ET RATE =  5.000000E-10

 USING ET EXTINCTION DEPTH FROM PREVIOUS STRESS PERIOD. CURRENT PERIOD IS:      49

 USING EXTINCTION WATER CONTENT FROM PREVIOUS STRESS PERIOD. CURRENT PERIOD IS:      49

 USING AIR ENTRY PRESSURE FROM PREVIOUS STRESS PERIOD. CURRENT PERIOD IS:      49

 USING ROOT PRESSURE HEAD FROM PREVIOUS STRESS PERIOD. CURRENT PERIOD IS:      49

 USING ROOT ACTIVITY FROM PREVIOUS STRESS PERIOD. CURRENT PERIOD IS:      49

 PROCESSING AG STRESS PERIOD DATA

 READING AG STRESS PERIOD DATA

 READING IRRIGATION SEGMENT

 READING IRRIGATION WELL

 READING SUPPLEMENTAL WELL

 NO IRRPOND OR REUSING IRRPOND DATA FROM LAST STRESS PERIOD

 END PROCESSING AG STRESS PERIOD DATA OPTIONS
 
 SOLVING FOR HEAD 
                                                   Max.-Head-Change                         Max.-Flux-Residual
  Residual-Control   Outer-Iter.   Inner-Iter.     Column Row Layer    Maximum-Head-Change  Column Row Layer    Maximum-Flux-Residual          L2-NORM 
          0                 1           2             3    7     1       0.4315520326E-01       5    7    1        -0.1774980207E+01      0.5304735790E+01
          0                 2           2             5    7     1      -0.8364228264E-02       5    7    1        -0.4604029980E+00      0.8699931490E+00
          0                 3           2             5    7     1      -0.2210656795E-02       5    7    1        -0.1226472896E+00      0.2149467028E+00
          0                 4           2             4    8     1      -0.5913239319E-03       5    7    1        -0.3234922415E-01      0.6241614525E-01
          0                 5           2             4    6     1       0.2011392493E-03       4    6    1         0.1087877143E-01      0.1878730840E-01
          0                 6           1             4    6     1       0.6887469722E-04       4    6    1         0.3724610548E-02      0.5803965277E-02

    ------------------------------------------------
       NWT REQUIRED            6 OUTER ITERATIONS 
       AND A TOTAL OF         11 INNER ITERATIONS.
    ------------------------------------------------

 NO OUTPUT CONTROL FOR STRESS PERIOD   49   TIME STEP    1
 
 SOLVING FOR HEAD 
                                                   Max.-Head-Change                         Max.-Flux-Residual
  Residual-Control   Outer-Iter.   Inner-Iter.     Column Row Layer    Maximum-Head-Change  Column Row Layer    Maximum-Flux-Residual          L2-NORM 
          0                 1           2             3    7     1       0.4209629561E-01       4    7    1        -0.2085580821E+01      0.5522370852E+01
          0                 2           2             4    7     1      -0.1063940312E-01       4    7    1        -0.5708590474E+00      0.1001239238E+01
          0                 3           2             4    7     1      -0.2925871057E-02       4    7    1        -0.1575556562E+00      0.2563466051E+00
          0                 4           2             4    7     1      -0.6642772452E-03       4    7    1        -0.3571823858E-01      0.6872483109E-01
          0                 5           2             4    6     1       0.1726551363E-03       4    6    1         0.9259478627E-02      0.1790061994E-01
          0                 6           1             4    6     1       0.5932497312E-04       4    6    1         0.3203402738E-02      0.5345689136E-02

    ------------------------------------------------
       NWT REQUIRED            6 OUTER ITERATIONS 
       AND A TOTAL OF         11 INNER ITERATIONS.
    ------------------------------------------------

 NO OUTPUT CONTROL FOR STRESS PERIOD   49   TIME STEP    2
 
 SOLVING FOR HEAD 
                                                   Max.-Head-Change                         Max.-Flux-Residual
  Residual-Control   Outer-Iter.   Inner-Iter.     Column Row Layer    Maximum-Head-Change  Column Row Layer    Maximum-Flux-Residual          L2-NORM 
          0                 1           2             3    7     1       0.4090815085E-01       4    7    1        -0.1992132579E+01      0.5374551794E+01
          0                 2           2             4    7     1      -0.1016805046E-01       4    7    1        -0.5452476662E+00      0.9543864130E+00
          0                 3           2             4    7     1      -0.2800013124E-02       4    7    1        -0.1506071174E+00      0.2406103054E+00
          0                 4           2             4    7     1      -0.7702586229E-03       4    7    1        -0.4144017897E-01      0.6709355648E-01
          0                 5           2             4    7     1      -0.2116083295E-03       4    7    1        -0.1139731231E-01      0.1897615100E-01
          0                 6           1             4    7     1      -0.5452485698E-04       4    7    1        -0.2938618152E-02      0.5296145564E-02

    ------------------------------------------------
       NWT REQUIRED            6 OUTER ITERATIONS 
       AND A TOTAL OF         11 INNER ITERATIONS.
    ------------------------------------------------

 NO OUTPUT CONTROL FOR STRESS PERIOD   49   TIME STEP    3
 
 SOLVING FOR HEAD 
                                                   Max.-Head-Change                         Max.-Flux-Residual
  Residual-Control   Outer-Iter.   Inner-Iter.     Column Row Layer    Maximum-Head-Change  Column Row Layer    Maximum-Flux-Residual          L2-NORM 
          0                 1           2             3    7     1       0.3976905071E-01       5    6    1        -0.2026433862E+01      0.5500705261E+01
          0                 2           2             5    6     1      -0.9651872754E-02       5    6    1        -0.5260438203E+00      0.1027109755E+01
          0                 3           2             4    7     1      -0.2632073526E-02       5    6    1        -0.1420107092E+00      0.2614590984E+00
          0                 4           2             4    7     1      -0.7261158631E-03       4    7    1        -0.3897861405E-01      0.7193798270E-01
          0                 5           2             4    7     1      -0.2002035731E-03       4    7    1        -0.1075280299E-01      0.2000094020E-01
          0                 6           1             4    7     1      -0.5515452579E-04       4    7    1        -0.2964248762E-02      0.5580265614E-02

    ------------------------------------------------
       NWT REQUIRED            6 OUTER ITERATIONS 
       AND A TOTAL OF         11 INNER ITERATIONS.
    ------------------------------------------------

 NO OUTPUT CONTROL FOR STRESS PERIOD   49   TIME STEP    4
 
 SOLVING FOR HEAD 
                                                   Max.-Head-Change                         Max.-Flux-Residual
  Residual-Control   Outer-Iter.   Inner-Iter.     Column Row Layer    Maximum-Head-Change  Column Row Layer    Maximum-Flux-Residual          L2-NORM 
          0                 1           2             3    7     1       0.3868111825E-01       5    6    1        -0.1823244080E+01      0.5255109947E+01
          0                 2           2             4    7     1      -0.9035377958E-02       4    7    1        -0.4834758559E+00      0.9636463382E+00
          0                 3           2             4    7     1      -0.2496311857E-02       4    7    1        -0.1339318013E+00      0.2436845531E+00
          0                 4           2             4    7     1      -0.6895498379E-03       4    7    1        -0.3697959150E-01      0.6698427380E-01
          0                 5           2             4    7     1      -0.1904028801E-03       4    7    1        -0.1021491747E-01      0.1860359385E-01
          0                 6           1             4    7     1      -0.5254520131E-04       4    7    1        -0.2820287735E-02      0.5179675393E-02

    ------------------------------------------------
       NWT REQUIRED            6 OUTER ITERATIONS 
       AND A TOTAL OF         11 INNER ITERATIONS.
    ------------------------------------------------

 NO OUTPUT CONTROL FOR STRESS PERIOD   49   TIME STEP    5
 
 SOLVING FOR HEAD 
                                                   Max.-Head-Change                         Max.-Flux-Residual
  Residual-Control   Outer-Iter.   Inner-Iter.     Column Row Layer    Maximum-Head-Change  Column Row Layer    Maximum-Flux-Residual          L2-NORM 
          0                 1           2             3    7     1       0.3763893190E-01       4    7    1        -0.1670959693E+01      0.5032626022E+01
          0                 2           2             4    7     1      -0.8572659161E-02       4    7    1        -0.4583588565E+00      0.9065328092E+00
          0                 3           2             4    7     1      -0.2370855979E-02       4    7    1        -0.1271073457E+00      0.2276603148E+00
          0                 4           2             4    7     1      -0.6556446833E-03       4    7    1        -0.3513068036E-01      0.6253193956E-01
          0                 5           2             4    7     1      -0.1812796523E-03       4    7    1        -0.9715701259E-02      0.1735540641E-01
          0                 6           1             4    7     1      -0.5010486011E-04       4    7    1        -0.2686129299E-02      0.4825204209E-02

    ------------------------------------------------
       NWT REQUIRED            6 OUTER ITERATIONS 
       AND A TOTAL OF         11 INNER ITERATIONS.
    ------------------------------------------------

 NO OUTPUT CONTROL FOR STRESS PERIOD   49   TIME STEP    6
 
 SOLVING FOR HEAD 
                                                   Max.-Head-Change                         Max.-Flux-Residual
  Residual-Control   Outer-Iter.   Inner-Iter.     Column Row Layer    Maximum-Head-Change  Column Row Layer    Maximum-Flux-Residual          L2-NORM 
          0                 1           2             3    7     1       0.3650078911E-01       4    7    1        -0.1584473129E+01      0.4828893224E+01
          0                 2           2             4    7     1      -0.8138667530E-02       4    7    1        -0.4348864169E+00      0.8542283851E+00
          0                 3           2             4    7     1      -0.2252860380E-02       4    7    1        -0.1206992545E+00      0.2130826898E+00
          0                 4           2             4    7     1      -0.6236511352E-03       4    7    1        -0.3339046734E-01      0.5849710766E-01
          0                 5           2             4    7     1      -0.1726375747E-03       4    7    1        -0.9244197145E-02      0.1623064257E-01
          0                 6           1             4    7     1      -0.4778242250E-04       4    7    1        -0.2558907574E-02      0.4508627998E-02

    ------------------------------------------------
       NWT REQUIRED            6 OUTER ITERATIONS 
       AND A TOTAL OF         11 INNER ITERATIONS.
    ------------------------------------------------

 NO OUTPUT CONTROL FOR STRESS PERIOD   49   TIME STEP    7
 
 SOLVING FOR HEAD 
                                                   Max.-Head-Change                         Max.-Flux-Residual
  Residual-Control   Outer-Iter.   Inner-Iter.     Column Row Layer    Maximum-Head-Change  Column Row Layer    Maximum-Flux-Residual          L2-NORM 
          0                 1           2             3    7     1       0.3547166344E-01       4    6    1        -0.1596528563E+01      0.4900215018E+01
          0                 2           2             4    6     1      -0.8245178919E-02       4    6    1        -0.4353586784E+00      0.9202951662E+00
          0                 3           2             4    6     1      -0.2305561176E-02       4    6    1        -0.1227400044E+00      0.2381163172E+00
          0                 4           2             4    7     1      -0.6461847821E-03       4    6    1        -0.3425611480E-01      0.6632491006E-01
          0                 5           2             4    7     1      -0.1829161454E-03       4    7    1        -0.9635383635E-02      0.1862395371E-01
          0                 6           1             4    7     1      -0.5175718595E-04       4    7    1        -0.2727180520E-02      0.5230299678E-02

    ------------------------------------------------
       NWT REQUIRED            6 OUTER ITERATIONS 
       AND A TOTAL OF         11 INNER ITERATIONS.
    ------------------------------------------------

 NO OUTPUT CONTROL FOR STRESS PERIOD   49   TIME STEP    8
 
 SOLVING FOR HEAD 
                                                   Max.-Head-Change                         Max.-Flux-Residual
  Residual-Control   Outer-Iter.   Inner-Iter.     Column Row Layer    Maximum-Head-Change  Column Row Layer    Maximum-Flux-Residual          L2-NORM 
          0                 1           2             4    6     1      -0.4297992780E-01       4    6    1        -0.2332643357E+01      0.5043613915E+01
          0                 2           2             4    6     1      -0.1187842545E-01       4    6    1        -0.6339695369E+00      0.1006367377E+01
          0                 3           2             4    7     1      -0.2260782072E-02       4    7    1        -0.1192593887E+00      0.2285718162E+00
          0                 4           2             4    7     1      -0.6275758039E-03       4    7    1        -0.3369407553E-01      0.5617512457E-01
          0                 5           2             4    7     1      -0.1742689535E-03       4    7    1        -0.9297576098E-02      0.1523457136E-01
          0                 6           1             4    7     1      -0.4840751153E-04       4    7    1        -0.2585589133E-02      0.4231667363E-02

    ------------------------------------------------
       NWT REQUIRED            6 OUTER ITERATIONS 
       AND A TOTAL OF         11 INNER ITERATIONS.
    ------------------------------------------------

 NO OUTPUT CONTROL FOR STRESS PERIOD   49   TIME STEP    9
 
 SOLVING FOR HEAD 
                                                   Max.-Head-Change                         Max.-Flux-Residual
  Residual-Control   Outer-Iter.   Inner-Iter.     Column Row Layer    Maximum-Head-Change  Column Row Layer    Maximum-Flux-Residual          L2-NORM 
          0                 1           2             4    6     1      -0.4247781561E-01       4    6    1        -0.2305132716E+01      0.4899604212E+01
          0                 2           2             4    6     1      -0.1173351485E-01       4    6    1        -0.6265889995E+00      0.9800949159E+00
          0                 3           2             4    7     1      -0.2196764421E-02       4    7    1        -0.1171659915E+00      0.1919660335E+00
          0                 4           2             4    7     1      -0.6095423295E-03       4    7    1        -0.3261161326E-01      0.5254692578E-01
          0                 5           2             4    7     1      -0.1691903255E-03       4    7    1        -0.9038106050E-02      0.1457217443E-01
          0                 6           1             4    7     1      -0.4697762744E-04       4    7    1        -0.2509608588E-02      0.4051392827E-02

    ------------------------------------------------
       NWT REQUIRED            6 OUTER ITERATIONS 
       AND A TOTAL OF         11 INNER ITERATIONS.
    ------------------------------------------------

 NO OUTPUT CONTROL FOR STRESS PERIOD   49   TIME STEP   10
 
 SOLVING FOR HEAD 
                                                   Max.-Head-Change                         Max.-Flux-Residual
  Residual-Control   Outer-Iter.   Inner-Iter.     Column Row Layer    Maximum-Head-Change  Column Row Layer    Maximum-Flux-Residual          L2-NORM 
          0                 1           2             4    6     1      -0.4127650571E-01       4    6    1        -0.2239535601E+01      0.4745322021E+01
          0                 2           2             4    6     1      -0.1140007630E-01       4    6    1        -0.6089087584E+00      0.9483310076E+00
          0                 3           2             4    7     1      -0.2144237553E-02       4    7    1        -0.1148553236E+00      0.1836127957E+00
          0                 4           2             4    7     1      -0.5946570688E-03       4    7    1        -0.3178484018E-01      0.5039603319E-01
          0                 5           2             4    7     1      -0.1649752546E-03       4    7    1        -0.8818572904E-02      0.1400571968E-01
          0                 6           1             4    7     1      -0.4578488064E-04       4    7    1        -0.2446666678E-02      0.3894070247E-02

    ------------------------------------------------
       NWT REQUIRED            6 OUTER ITERATIONS 
       AND A TOTAL OF         11 INNER ITERATIONS.
    ------------------------------------------------

 NO OUTPUT CONTROL FOR STRESS PERIOD   49   TIME STEP   11
 
 SOLVING FOR HEAD 
                                                   Max.-Head-Change                         Max.-Flux-Residual
  Residual-Control   Outer-Iter.   Inner-Iter.     Column Row Layer    Maximum-Head-Change  Column Row Layer    Maximum-Flux-Residual          L2-NORM 
          0                 1           2             4    6     1      -0.3940529962E-01       4    6    1        -0.2137430125E+01      0.4580673253E+01
          0                 2           2             4    6     1      -0.1088570602E-01       4    6    1        -0.5813622778E+00      0.9109804835E+00
          0                 3           2             4    7     1      -0.2102985829E-02       4    7    1        -0.1123518480E+00      0.1774577419E+00
          0                 4           2             4    7     1      -0.5828589489E-03       4    7    1        -0.3120063242E-01      0.4869344938E-01
          0                 5           2             4    7     1      -0.1616064146E-03       4    7    1        -0.8640527291E-02      0.1351550612E-01
          0                 6           1             4    7     1      -0.4482435669E-04       4    7    1        -0.2396404217E-02      0.3758348852E-02

    ------------------------------------------------
       NWT REQUIRED            6 OUTER ITERATIONS 
       AND A TOTAL OF         11 INNER ITERATIONS.
    ------------------------------------------------

 NO OUTPUT CONTROL FOR STRESS PERIOD   49   TIME STEP   12
 
 SOLVING FOR HEAD 
                                                   Max.-Head-Change                         Max.-Flux-Residual
  Residual-Control   Outer-Iter.   Inner-Iter.     Column Row Layer    Maximum-Head-Change  Column Row Layer    Maximum-Flux-Residual          L2-NORM 
          0                 1           2             4    6     1      -0.3689162315E-01       4    6    1        -0.2000334810E+01      0.4406482496E+01
          0                 2           2             4    6     1      -0.1019809978E-01       4    6    1        -0.5443511531E+00      0.8685235582E+00
          0                 3           2             4    7     1      -0.2072781458E-02       4    7    1        -0.1096774878E+00      0.1947891584E+00
          0                 4           2             4    7     1      -0.5740833485E-03       4    7    1        -0.3085852953E-01      0.4824389050E-01
          0                 5           1             4    7     1      -0.1590655010E-03       4    7    1        -0.8501032008E-02      0.1311033385E-01
          0                 6           1             4    7     1      -0.4409087229E-04       4    7    1        -0.2358629147E-02      0.3643398356E-02

    ------------------------------------------------
       NWT REQUIRED            6 OUTER ITERATIONS 
       AND A TOTAL OF         10 INNER ITERATIONS.
    ------------------------------------------------

 NO OUTPUT CONTROL FOR STRESS PERIOD   49   TIME STEP   13
 
 SOLVING FOR HEAD 
                                                   Max.-Head-Change                         Max.-Flux-Residual
  Residual-Control   Outer-Iter.   Inner-Iter.     Column Row Layer    Maximum-Head-Change  Column Row Layer    Maximum-Flux-Residual          L2-NORM 
          0                 1           2             4    6     1      -0.3376175635E-01       4    6    1        -0.1829675164E+01      0.4224635032E+01
          0                 2           2             4    6     1      -0.9344243437E-02       4    6    1        -0.4982631736E+00      0.8214758075E+00
          0                 3           2             4    6     1      -0.2587537598E-02       4    6    1        -0.1386493380E+00      0.2144492387E+00
          0                 4           2             4    6     1      -0.7168818249E-03       4    6    1        -0.3835121369E-01      0.5971962710E-01
          0                 5           2             4    6     1      -0.1987098547E-03       4    6    1        -0.1062812241E-01      0.1674704734E-01
          0                 6           1             4    6     1      -0.5510554680E-04       4    6    1        -0.2946327771E-02      0.4697346936E-02

    ------------------------------------------------
       NWT REQUIRED            6 OUTER ITERATIONS 
       AND A TOTAL OF         11 INNER ITERATIONS.
    ------------------------------------------------

 NO OUTPUT CONTROL FOR STRESS PERIOD   49   TIME STEP   14
 
 SOLVING FOR HEAD 
                                                   Max.-Head-Change                         Max.-Flux-Residual
  Residual-Control   Outer-Iter.   Inner-Iter.     Column Row Layer    Maximum-Head-Change  Column Row Layer    Maximum-Flux-Residual          L2-NORM 
          0                 1           2             4    6     1      -0.3022499193E-01       4    6    1        -0.1636870213E+01      0.4041885885E+01
          0                 2           2             4    6     1      -0.8380645640E-02       4    6    1        -0.4461795749E+00      0.7722582781E+00
          0                 3           2             4    6     1      -0.2324798234E-02       4    6    1        -0.1244184770E+00      0.2005596024E+00
          0                 4           2             4    6     1      -0.6451860882E-03       4    6    1        -0.3447267664E-01      0.5586276129E-01
          0                 5           2             4    6     1      -0.1791306617E-03       4    6    1        -0.9569474455E-02      0.1567518979E-01
          0                 6           1             4    6     1      -0.4975468489E-04       4    6    1        -0.2657166113E-02      0.4399242518E-02

    ------------------------------------------------
       NWT REQUIRED            6 OUTER ITERATIONS 
       AND A TOTAL OF         11 INNER ITERATIONS.
    ------------------------------------------------

 NO OUTPUT CONTROL FOR STRESS PERIOD   49   TIME STEP   15
 
 SOLVING FOR HEAD 
                                                   Max.-Head-Change                         Max.-Flux-Residual
  Residual-Control   Outer-Iter.   Inner-Iter.     Column Row Layer    Maximum-Head-Change  Column Row Layer    Maximum-Flux-Residual          L2-NORM 
          0                 1           2             4    6     1      -0.2856648040E-01       4    6    1        -0.1546603842E+01      0.3907584323E+01
          0                 2           2             4    6     1      -0.7924460014E-02       4    6    1        -0.4217411827E+00      0.7402884818E+00
          0                 3           2             4    6     1      -0.2199239429E-02       4    6    1        -0.1176608640E+00      0.1917087022E+00
          0                 4           2             4    6     1      -0.6106054902E-03       4    6    1        -0.3261468466E-01      0.5339455985E-01
          0                 5           2             4    6     1      -0.1696007229E-03       4    6    1        -0.9057602724E-02      0.1498495768E-01
          0                 6           1             4    6     1      -0.4712676016E-04       4    6    1        -0.2516078785E-02      0.4206156697E-02

    ------------------------------------------------
       NWT REQUIRED            6 OUTER ITERATIONS 
       AND A TOTAL OF         11 INNER ITERATIONS.
    ------------------------------------------------

 NO OUTPUT CONTROL FOR STRESS PERIOD   49   TIME STEP   16
 
 SOLVING FOR HEAD 
                                                   Max.-Head-Change                         Max.-Flux-Residual
  Residual-Control   Outer-Iter.   Inner-Iter.     Column Row Layer    Maximum-Head-Change  Column Row Layer    Maximum-Flux-Residual          L2-NORM 
          0                 1           2             3    7     1       0.2730826912E-01       4    6    1        -0.1462005534E+01      0.3780807959E+01
          0                 2           2             4    6     1      -0.7496386660E-02       4    6    1        -0.3988200142E+00      0.7099475377E+00
          0                 3           2             4    6     1      -0.2081338665E-02       4    6    1        -0.1113185544E+00      0.1832863661E+00
          0                 4           2             4    6     1      -0.5781127095E-03       4    6    1        -0.3086970223E-01      0.5104399406E-01
          0                 5           2             4    6     1      -0.1606404413E-03       4    6    1        -0.8576552008E-02      0.1432725495E-01
          0                 6           1             4    6     1      -0.4465438748E-04       4    6    1        -0.2383402649E-02      0.4022076507E-02

    ------------------------------------------------
       NWT REQUIRED            6 OUTER ITERATIONS 
       AND A TOTAL OF         11 INNER ITERATIONS.
    ------------------------------------------------

 NO OUTPUT CONTROL FOR STRESS PERIOD   49   TIME STEP   17
 
 SOLVING FOR HEAD 
                                                   Max.-Head-Change                         Max.-Flux-Residual
  Residual-Control   Outer-Iter.   Inner-Iter.     Column Row Layer    Maximum-Head-Change  Column Row Layer    Maximum-Flux-Residual          L2-NORM 
          0                 1           2             3    7     1       0.2652543812E-01       4    6    1        -0.1382638297E+01      0.3661037969E+01
          0                 2           2             4    6     1      -0.7094298124E-02       4    6    1        -0.3773002138E+00      0.6811292200E+00
          0                 3           2             4    6     1      -0.1970523038E-02       4    6    1        -0.1053602210E+00      0.1752649339E+00
          0                 4           2             4    6     1      -0.5475533261E-03       4    6    1        -0.2922930100E-01      0.4880362996E-01
          0                 5           2             4    6     1      -0.1522081585E-03       4    6    1        -0.8124049762E-02      0.1370006818E-01
          0                 6           1             4    6     1      -0.4232631737E-04       4    6    1        -0.2258524462E-02      0.3846455808E-02

    ------------------------------------------------
       NWT REQUIRED            6 OUTER ITERATIONS 
       AND A TOTAL OF         11 INNER ITERATIONS.
    ------------------------------------------------

 NO OUTPUT CONTROL FOR STRESS PERIOD   49   TIME STEP   18
 
 SOLVING FOR HEAD 
                                                   Max.-Head-Change                         Max.-Flux-Residual
  Residual-Control   Outer-Iter.   Inner-Iter.     Column Row Layer    Maximum-Head-Change  Column Row Layer    Maximum-Flux-Residual          L2-NORM 
          0                 1           2             3    7     1       0.2576700155E-01       4    6    1        -0.1308133079E+01      0.3547802155E+01
          0                 2           2             4    6     1      -0.6716385462E-02       4    6    1        -0.3570836503E+00      0.6537373494E+00
          0                 3           2             4    6     1      -0.1866303173E-02       4    6    1        -0.9975919023E-01      0.1676192981E+00
          0                 4           2             4    6     1      -0.5187948390E-03       4    6    1        -0.2768627268E-01      0.4666669690E-01
          0                 5           2             4    6     1      -0.1442679673E-03       4    6    1        -0.7698143517E-02      0.1310156051E-01
          0                 6           1             4    6     1      -0.4013281376E-04       4    6    1        -0.2140915091E-02      0.3678794877E-02

    ------------------------------------------------
       NWT REQUIRED            6 OUTER ITERATIONS 
       AND A TOTAL OF         11 INNER ITERATIONS.
    ------------------------------------------------

 NO OUTPUT CONTROL FOR STRESS PERIOD   49   TIME STEP   19
 
 SOLVING FOR HEAD 
                                                   Max.-Head-Change                         Max.-Flux-Residual
  Residual-Control   Outer-Iter.   Inner-Iter.     Column Row Layer    Maximum-Head-Change  Column Row Layer    Maximum-Flux-Residual          L2-NORM 
          0                 1           2             3    7     1       0.2503221403E-01       4    6    1        -0.1238122086E+01      0.3440657237E+01
          0                 2           2             4    6     1      -0.6360855262E-02       4    6    1        -0.3380727586E+00      0.6276838866E+00
          0                 3           2             4    6     1      -0.1768195557E-02       4    6    1        -0.9448904425E-01      0.1603265657E+00
          0                 4           2             4    6     1      -0.4917067733E-03       4    6    1        -0.2623350185E-01      0.4462701720E-01
          0                 5           2             4    6     1      -0.1367846306E-03       4    6    1        -0.7296912518E-02      0.1253005347E-01
          0                 6           1             4    6     1      -0.3806434866E-04       4    6    1        -0.2030055553E-02      0.3518635288E-02

    ------------------------------------------------
       NWT REQUIRED            6 OUTER ITERATIONS 
       AND A TOTAL OF         11 INNER ITERATIONS.
    ------------------------------------------------

 NO OUTPUT CONTROL FOR STRESS PERIOD   49   TIME STEP   20
 
 SOLVING FOR HEAD 
                                                   Max.-Head-Change                         Max.-Flux-Residual
  Residual-Control   Outer-Iter.   Inner-Iter.     Column Row Layer    Maximum-Head-Change  Column Row Layer    Maximum-Flux-Residual          L2-NORM 
          0                 1           2             3    7     1       0.2432079663E-01       4    6    1        -0.1172284264E+01      0.3339200083E+01
          0                 2           2             4    6     1      -0.6026131283E-02       4    6    1        -0.3201821044E+00      0.6028849458E+00
          0                 3           2             4    6     1      -0.1675773290E-02       4    6    1        -0.8952653365E-01      0.1533645083E+00
          0                 4           2             4    6     1      -0.4661734081E-03       4    6    1        -0.2486469857E-01      0.4267854815E-01
          0                 5           2             4    7     1      -0.1300363213E-03       4    6    1        -0.6918651066E-02      0.1198388859E-01
          0                 6           1             4    7     1      -0.3661710837E-04       4    7    1        -0.1936230396E-02      0.3365525628E-02

    ------------------------------------------------
       NWT REQUIRED            6 OUTER ITERATIONS 
       AND A TOTAL OF         11 INNER ITERATIONS.
    ------------------------------------------------

 NO OUTPUT CONTROL FOR STRESS PERIOD   49   TIME STEP   21
 
 SOLVING FOR HEAD 
                                                   Max.-Head-Change                         Max.-Flux-Residual
  Residual-Control   Outer-Iter.   Inner-Iter.     Column Row Layer    Maximum-Head-Change  Column Row Layer    Maximum-Flux-Residual          L2-NORM 
          0                 1           2             3    7     1       0.2363243738E-01       4    6    1        -0.1110340081E+01      0.3243080745E+01
          0                 2           2             4    6     1      -0.5710843552E-02       4    6    1        -0.3033374506E+00      0.5792906336E+00
          0                 3           2             4    6     1      -0.1588665507E-02       4    6    1        -0.8485145076E-01      0.1467158811E+00
          0                 4           2             4    7     1      -0.4462610060E-03       4    7    1        -0.2359954749E-01      0.4081653757E-01
          0                 5           2             4    7     1      -0.1256169432E-03       4    7    1        -0.6644152182E-02      0.1146177871E-01
          0                 6           1             4    7     1      -0.3535510307E-04       4    7    1        -0.1870171506E-02      0.3219112153E-02

    ------------------------------------------------
       NWT REQUIRED            6 OUTER ITERATIONS 
       AND A TOTAL OF         11 INNER ITERATIONS.
    ------------------------------------------------

 NO OUTPUT CONTROL FOR STRESS PERIOD   49   TIME STEP   22
 
 SOLVING FOR HEAD 
                                                   Max.-Head-Change                         Max.-Flux-Residual
  Residual-Control   Outer-Iter.   Inner-Iter.     Column Row Layer    Maximum-Head-Change  Column Row Layer    Maximum-Flux-Residual          L2-NORM 
          0                 1           2             3    7     1       0.2296630285E-01       4    6    1        -0.1052003909E+01      0.3151916984E+01
          0                 2           2             4    7     1      -0.5443729736E-02       4    6    1        -0.2874626625E+00      0.5567736556E+00
          0                 3           2             4    7     1      -0.1531960361E-02       4    7    1        -0.8108609727E-01      0.1403604988E+00
          0                 4           2             4    7     1      -0.4310636332E-03       4    7    1        -0.2280456594E-01      0.3903576274E-01
          0                 5           2             4    7     1      -0.1212790658E-03       4    7    1        -0.6417015516E-02      0.1096228887E-01
          0                 6           1             4    7     1      -0.3411832897E-04       4    7    1        -0.1805359362E-02      0.3079001197E-02

    ------------------------------------------------
       NWT REQUIRED            6 OUTER ITERATIONS 
       AND A TOTAL OF         11 INNER ITERATIONS.
    ------------------------------------------------

 NO OUTPUT CONTROL FOR STRESS PERIOD   49   TIME STEP   23
 
 SOLVING FOR HEAD 
                                                   Max.-Head-Change                         Max.-Flux-Residual
  Residual-Control   Outer-Iter.   Inner-Iter.     Column Row Layer    Maximum-Head-Change  Column Row Layer    Maximum-Flux-Residual          L2-NORM 
          0                 1           2             3    7     1       0.2232228769E-01       4    6    1        -0.9970285352E+00      0.3065398538E+01
          0                 2           2             4    7     1      -0.5260627996E-02       4    7    1        -0.2778018753E+00      0.5353258740E+00
          0                 3           2             4    7     1      -0.1479658170E-02       4    7    1        -0.7834773246E-01      0.1342831184E+00
          0                 4           2             4    7     1      -0.4161419863E-03       4    7    1        -0.2202301996E-01      0.3733179013E-01
          0                 5           2             4    7     1      -0.1170266638E-03       4    7    1        -0.6194098509E-02      0.1048420245E-01
          0                 6           1             4    7     1      -0.3290768147E-04       4    7    1        -0.1741849908E-02      0.2944858773E-02

    ------------------------------------------------
       NWT REQUIRED            6 OUTER ITERATIONS 
       AND A TOTAL OF         11 INNER ITERATIONS.
    ------------------------------------------------

 NO OUTPUT CONTROL FOR STRESS PERIOD   49   TIME STEP   24
 
 SOLVING FOR HEAD 
                                                   Max.-Head-Change                         Max.-Flux-Residual
  Residual-Control   Outer-Iter.   Inner-Iter.     Column Row Layer    Maximum-Head-Change  Column Row Layer    Maximum-Flux-Residual          L2-NORM 
          0                 1           2             3    7     1       0.2169953087E-01       4    7    1        -0.9621950624E+00      0.2983290664E+01
          0                 2           2             4    7     1      -0.5080607948E-02       4    7    1        -0.2683934080E+00      0.5148774943E+00
          0                 3           2             4    7     1      -0.1428323429E-02       4    7    1        -0.7565674505E-01      0.1284691351E+00
          0                 4           2             4    7     1      -0.4015189448E-03       4    7    1        -0.2125625896E-01      0.3570071355E-01
          0                 5           1             4    7     1      -0.1128652245E-03       4    7    1        -0.5975727878E-02      0.1002644701E-01
          0                 6           1             4    7     1      -0.3172445615E-04       4    7    1        -0.1679721172E-02      0.2816389933E-02

    ------------------------------------------------
       NWT REQUIRED            6 OUTER ITERATIONS 
       AND A TOTAL OF         10 INNER ITERATIONS.
    ------------------------------------------------

 NO OUTPUT CONTROL FOR STRESS PERIOD   49   TIME STEP   25
 
 SOLVING FOR HEAD 
                                                   Max.-Head-Change                         Max.-Flux-Residual
  Residual-Control   Outer-Iter.   Inner-Iter.     Column Row Layer    Maximum-Head-Change  Column Row Layer    Maximum-Flux-Residual          L2-NORM 
          0                 1           2             3    7     1       0.2109741432E-01       4    7    1        -0.9295705168E+00      0.2905325468E+01
          0                 2           2             4    7     1      -0.4903922104E-02       4    7    1        -0.2591477633E+00      0.4953753478E+00
          0                 3           2             4    7     1      -0.1378016299E-02       4    7    1        -0.7301673446E-01      0.1229044085E+00
          0                 4           2             4    7     1      -0.3872085674E-03       4    7    1        -0.2050513680E-01      0.3413865265E-01
          0                 5           1             4    7     1      -0.1087979472E-03       4    7    1        -0.5762101857E-02      0.9587953654E-02
          0                 6           1             4    7     1      -0.3056935306E-04       4    7    1        -0.1619017899E-02      0.2693299835E-02

    ------------------------------------------------
       NWT REQUIRED            6 OUTER ITERATIONS 
       AND A TOTAL OF         10 INNER ITERATIONS.
    ------------------------------------------------

 NO OUTPUT CONTROL FOR STRESS PERIOD   49   TIME STEP   26
 
 SOLVING FOR HEAD 
                                                   Max.-Head-Change                         Max.-Flux-Residual
  Residual-Control   Outer-Iter.   Inner-Iter.     Column Row Layer    Maximum-Head-Change  Column Row Layer    Maximum-Flux-Residual          L2-NORM 
          0                 1           2             3    7     1       0.2051580098E-01       4    7    1        -0.8975153766E+00      0.2841293730E+01
          0                 2           2             4    7     1      -0.4730862598E-02       4    7    1        -0.2500798596E+00      0.4786928987E+00
          0                 3           2             4    7     1      -0.1328823171E-02       4    7    1        -0.7043210336E-01      0.1176627061E+00
          0                 4           2             4    7     1      -0.3732364426E-03       4    7    1        -0.1977095640E-01      0.3265204910E-01
          0                 5           1             4    7     1      -0.1048324156E-03       4    7    1        -0.5553606503E-02      0.9170325855E-02
          0                 6           1             4    7     1      -0.2944461921E-04       4    7    1        -0.1559854489E-02      0.2576054338E-02

    ------------------------------------------------
       NWT REQUIRED            6 OUTER ITERATIONS 
       AND A TOTAL OF         10 INNER ITERATIONS.
    ------------------------------------------------

 NO OUTPUT CONTROL FOR STRESS PERIOD   49   TIME STEP   27
 
 SOLVING FOR HEAD 
                                                   Max.-Head-Change                         Max.-Flux-Residual
  Residual-Control   Outer-Iter.   Inner-Iter.     Column Row Layer    Maximum-Head-Change  Column Row Layer    Maximum-Flux-Residual          L2-NORM 
          0                 1           2             3    7     1       0.1995405420E-01       4    7    1        -0.8660814410E+00      0.2759580998E+01
          0                 2           2             4    7     1      -0.4561460240E-02       4    7    1        -0.2411967563E+00      0.4606309097E+00
          0                 3           2             4    7     1      -0.1280714648E-02       4    7    1        -0.6790276812E-01      0.1125330159E+00
          0                 4           2             4    7     1      -0.3595839432E-03       4    7    1        -0.1905313285E-01      0.3121671572E-01
          0                 5           1             4    7     1      -0.1009605741E-03       4    7    1        -0.5349924460E-02      0.8767453016E-02
          0                 6           1             4    7     1      -0.2834722324E-04       4    7    1        -0.1502100139E-02      0.2462920620E-02

    ------------------------------------------------
       NWT REQUIRED            6 OUTER ITERATIONS 
       AND A TOTAL OF         10 INNER ITERATIONS.
    ------------------------------------------------

 NO OUTPUT CONTROL FOR STRESS PERIOD   49   TIME STEP   28
 
 SOLVING FOR HEAD 
                                                   Max.-Head-Change                         Max.-Flux-Residual
  Residual-Control   Outer-Iter.   Inner-Iter.     Column Row Layer    Maximum-Head-Change  Column Row Layer    Maximum-Flux-Residual          L2-NORM 
          0                 1           2             3    7     1       0.1941130281E-01       4    7    1        -0.8352899728E+00      0.2692591287E+01
          0                 2           2             4    7     1      -0.4395864261E-02       4    7    1        -0.2325055584E+00      0.4420727321E+00
          0                 3           2             4    7     1      -0.1233738787E-02       4    7    1        -0.6543102998E-01      0.1076077655E+00
          0                 4           2             4    7     1      -0.3462663682E-03       4    7    1        -0.1835240562E-01      0.2984059995E-01
          0                 5           1             4    7     1      -0.9718724081E-04       4    7    1        -0.5151290442E-02      0.8380972177E-02

    ------------------------------------------------
       NWT REQUIRED            5 OUTER ITERATIONS 
       AND A TOTAL OF          9 INNER ITERATIONS.
    ------------------------------------------------

 NO OUTPUT CONTROL FOR STRESS PERIOD   49   TIME STEP   29
 
 SOLVING FOR HEAD 
                                                   Max.-Head-Change                         Max.-Flux-Residual
  Residual-Control   Outer-Iter.   Inner-Iter.     Column Row Layer    Maximum-Head-Change  Column Row Layer    Maximum-Flux-Residual          L2-NORM 
          0                 1           2             3    7     1       0.1888720824E-01       4    7    1        -0.8052005264E+00      0.2628888411E+01
          0                 2           2             4    7     1      -0.4234348441E-02       4    7    1        -0.2240217011E+00      0.4259036718E+00
          0                 3           2             4    7     1      -0.1187966124E-02       4    7    1        -0.6302086981E-01      0.1029206127E+00
          0                 4           2             4    7     1      -0.3333018393E-03       4    7    1        -0.1766979981E-01      0.2852177443E-01
          0                 5           1             4    7     1      -0.9351705934E-04       4    7    1        -0.4957967668E-02      0.8010461482E-02

    ------------------------------------------------
       NWT REQUIRED            5 OUTER ITERATIONS 
       AND A TOTAL OF          9 INNER ITERATIONS.
    ------------------------------------------------

 NO OUTPUT CONTROL FOR STRESS PERIOD   49   TIME STEP   30



 STREAM LISTING     PERIOD     49   STEP       30

 LAYER ROW COL. STREAM  RCH.  FLOW INTO     FLOW TO   FLOW OUT OF   OVRLND.     DIRECT     STREAM       STREAM     STREAM     STREAM   STREAMBED  STREAMBED
                SEG.NO.  NO.  STRM. RCH.    AQUIFER    STRM. RCH.    RUNOFF     PRECIP       ET          HEAD       DEPTH      WIDTH   CONDCTNC.   GRADIENT

   1    1    1     1     1    1.4250E+01  1.8169E-01   1.4068E+01  0.000E+00  0.000E+00  0.000E+00  1.09404E+03  9.953E-01  1.011E+01  4.547E-02  1.332E+00
   1    2    2     1     2    1.4068E+01  2.7999E-01   1.3788E+01  0.000E+00  0.000E+00  0.000E+00  1.08905E+03  9.906E-01  1.002E+01  7.016E-02  1.330E+00
   1    3    3     1     3    1.3788E+01  2.3745E-01   1.3551E+01  0.000E+00  0.000E+00  0.000E+00  1.08340E+03  9.852E-01  9.930E+00  5.958E-02  1.328E+00
   1    3    4     1     4    1.3551E+01  2.1755E-01   1.3333E+01  0.000E+00  0.000E+00  0.000E+00  1.07839E+03  9.805E-01  9.848E+00  5.465E-02  1.327E+00
   1    4    5     2     1    1.1333E+01  2.9214E-01   1.1041E+01  0.000E+00  0.000E+00  0.000E+00  1.07268E+03  7.454E-01  1.200E+01  7.800E-02  1.248E+00
   1    5    6     2     2    1.1041E+01  2.2410E-01   1.0817E+01  0.000E+00  0.000E+00  0.000E+00  1.06724E+03  7.350E-01  1.200E+01  6.000E-02  1.245E+00
   1    6    6     2     3    1.0817E+01  2.2356E-01   1.0594E+01  0.000E+00  0.000E+00  0.000E+00  1.06252E+03  7.259E-01  1.200E+01  6.000E-02  1.242E+00
   1    7    6     2     4    1.0594E+01  2.2301E-01   1.0371E+01  0.000E+00  0.000E+00  0.000E+00  1.05779E+03  7.168E-01  1.200E+01  6.000E-02  1.239E+00
   1    8    6     2     5    1.0371E+01  2.2246E-01   1.0148E+01  0.000E+00  0.000E+00  0.000E+00  1.05307E+03  7.076E-01  1.200E+01  6.000E-02  1.236E+00
   1    3    5     3     1    2.0000E+00  2.8252E-01   1.7175E+00  0.000E+00  0.000E+00  0.000E+00  1.07555E+03  1.909E+00  9.636E+00  7.227E-02  1.955E+00
   1    3    6     3     2    1.7175E+00  2.4905E-01   1.4684E+00  0.000E+00  0.000E+00  0.000E+00  1.07264E+03  1.727E+00  8.909E+00  6.682E-02  1.864E+00
   1    3    7     3     3    1.4684E+00  1.9718E-01   1.2712E+00  0.000E+00  0.000E+00  0.000E+00  1.06987E+03  1.555E+00  8.218E+00  5.547E-02  1.777E+00
   1    4    8     3     4    1.2712E+00  2.2567E-01   1.0456E+00  0.000E+00  0.000E+00  0.000E+00  1.06682E+03  1.364E+00  7.455E+00  6.709E-02  1.682E+00
   1    5    8     3     5    1.0456E+00  1.5790E-01   8.8768E-01  0.000E+00  0.000E+00  0.000E+00  1.06362E+03  1.164E+00  6.655E+00  4.991E-02  1.582E+00
   1    6    8     3     6    8.8768E-01  5.5980E-02   8.3170E-01  0.000E+00  0.000E+00  0.000E+00  1.06158E+03  1.036E+00  6.145E+00  1.844E-02  1.518E+00
   1    5   10     4     1    1.0000E+01  9.0919E-02   9.9091E+00  0.000E+00  0.000E+00  0.000E+00  1.07836E+03  6.368E-01  1.000E+01  2.500E-02  1.212E+00
   1    5    9     4     2    9.9091E+00  1.8158E-01   9.7275E+00  0.000E+00  0.000E+00  0.000E+00  1.07154E+03  6.315E-01  1.000E+01  5.000E-02  1.211E+00
   1    6    8     4     3    9.7275E+00  1.2689E-01   9.6006E+00  0.000E+00  0.000E+00  0.000E+00  1.06381E+03  6.256E-01  1.000E+01  3.500E-02  1.209E+00
   1    6    8     5     1    1.0432E+01  2.2686E-01   1.0205E+01  0.000E+00  0.000E+00  0.000E+00  1.05868E+03  6.790E-01  1.542E+01  6.166E-02  1.226E+00
   1    7    7     5     2    1.0205E+01  2.7894E-01   9.9265E+00  0.000E+00  0.000E+00  0.000E+00  1.05417E+03  6.732E-01  1.519E+01  7.594E-02  1.224E+00
   1    8    7     5     3    9.9265E+00  1.9221E-01   9.7343E+00  0.000E+00  0.000E+00  0.000E+00  1.04992E+03  6.676E-01  1.497E+01  5.241E-02  1.223E+00
   1    8    6     5     4    9.7343E+00  1.3577E-01   9.5985E+00  0.000E+00  0.000E+00  0.000E+00  1.04691E+03  6.637E-01  1.482E+01  3.706E-02  1.221E+00
   1    9    6     6     1    1.9747E+01  2.4336E-01   1.9503E+01  0.000E+00  0.000E+00  0.000E+00  1.04378E+03  1.056E+00  1.200E+01  6.000E-02  1.352E+00
   1   10    7     6     2    1.9503E+01  2.4289E-01   1.9260E+01  0.000E+00  0.000E+00  0.000E+00  1.03923E+03  1.048E+00  1.200E+01  6.000E-02  1.349E+00
   1   11    7     6     3    1.9260E+01  2.4241E-01   1.9018E+01  0.000E+00  0.000E+00  0.000E+00  1.03468E+03  1.040E+00  1.200E+01  6.000E-02  1.347E+00
   1   12    7     6     4    1.9018E+01  2.4194E-01   1.8776E+01  0.000E+00  0.000E+00  0.000E+00  1.03012E+03  1.032E+00  1.200E+01  6.000E-02  1.344E+00
   1   13    7     6     5    1.8776E+01  4.1277E-03   1.8772E+01  0.000E+00  0.000E+00  0.000E+00  1.02694E+03  1.028E+00  1.200E+01  2.400E-02  5.733E-02
   1   14    9     7     1    1.5000E+02  1.3773E+00   1.4862E+02  0.000E+00  0.000E+00  0.000E+00  1.03987E+03  2.288E+00  5.529E+01  5.593E-01  8.208E-01
   1   13    8     7     2    1.4862E+02  1.9418E+00   1.4668E+02  0.000E+00  0.000E+00  0.000E+00  1.03478E+03  2.279E+00  5.525E+01  6.147E-01  1.053E+00
   1   13    7     7     3    1.4668E+02  1.6323E+00   1.4505E+02  0.000E+00  0.000E+00  0.000E+00  1.02969E+03  2.269E+00  5.521E+01  5.584E-01  9.744E-01
   1   13    6     8     1    1.6382E+02  1.0435E+00   1.6278E+02  0.000E+00  0.000E+00  0.000E+00  1.02478E+03  2.908E+00  4.217E+01  4.297E-01  8.095E-01
   1   13    5     8     2    1.6278E+02  2.9015E-01   1.6249E+02  0.000E+00  0.000E+00  0.000E+00  1.01853E+03  2.904E+00  4.210E+01  4.290E-01  2.254E-01
   1   13    4     8     3    1.6249E+02 -2.0425E+00   1.6453E+02  0.000E+00  0.000E+00  0.000E+00  1.01228E+03  2.909E+00  4.219E+01  4.299E+00 -1.584E-01
   1   13    3     8     4    1.6453E+02 -3.4488E+00   1.6798E+02  0.000E+00  0.000E+00  0.000E+00  1.00605E+03  2.928E+00  4.245E+01  4.326E+00 -2.657E-01
   1   13    2     8     5    1.6798E+02 -2.5252E+00   1.7050E+02  0.000E+00  0.000E+00  0.000E+00  9.99822E+02  2.947E+00  4.274E+01  4.355E+00 -1.933E-01
   1   13    1     8     6    1.7050E+02 -1.9694E+00   1.7247E+02  0.000E+00  0.000E+00  0.000E+00  9.94837E+02  2.962E+00  4.295E+01  2.626E+00 -2.500E-01
   1    8    6     9     1    0.0000E+00  0.0000E+00   0.0000E+00  0.000E+00  0.000E+00  0.000E+00  1.07875E+03  0.000E+00  4.000E+00  0.000E+00  1.000E+00
   1    8    5     9     2    0.0000E+00  0.0000E+00   0.0000E+00  0.000E+00  0.000E+00  0.000E+00  1.07825E+03  0.000E+00  4.000E+00  0.000E+00  1.000E+00





UNSATURATED ZONE PACKAGE VOLUMETRIC BUDGET FOR  TIME STEP    30 STRESS PERIOD   49
  ------------------------------------------------------------------------------



     CUMULATIVE VOLUMES      L**3       RATES FOR THIS TIME STEP      L**3/T
     ------------------                 ------------------------

           IN:                                      IN:
           ---                                      ---
        INFILTRATION = 13148007668.0588          INFILTRATION =           0.8475

          OUT:                                     OUT:
          ----                                     ----
              UZF ET =  1713974623.9251                UZF ET =           0.7500
        UZF RECHARGE = 11014887444.6260          UZF RECHARGE =           4.7598

            IN - OUT =   419145599.5077              IN - OUT =          -4.6623

          STORAGE:                                 STORAGE:
          --------                                 --------
      STORAGE CHANGE =   420647410.6303        STORAGE CHANGE =          -4.6623

 PERCENT DISCREPANCY IS DIFFERENCE BETWEEN IN-OUT MINUS CHANGE IN STORAGE
 DIVIDED BY THE AVERAGE OF IN AND OUT TIMES 100

 PERCENT DISCREPANCY =          -0.00     PERCENT DISCREPANCY =          -0.00






1
  VOLUMETRIC BUDGET FOR AGRICULTURAL FIELDS AT  END OF TIME STEP   30, STRESS PERIOD  49
  ------------------------------------------------------------------------------

     CUMULATIVE VOLUMES      L**3       RATES FOR THIS TIME STEP      L**3/T
     ------------------                 ------------------------

           IN:                                      IN:
           ---                                      ---
               AG WELLS  = 11826811904.0000                 AG WELLS  =           0.0000
      DIVERSION SEGMENTS =  1214144000.0000        DIVERSION SEGMENTS =           0.0000
       IRRIGATION PONDS  =           0.0000         IRRIGATION PONDS  =           0.0000
           GW IRRIGATION =           0.0000             GW IRRIGATION =           0.0000
           SW IRRIGATION =           0.0000             SW IRRIGATION =           0.0000
        SYSTEM LOSSES GW =           0.0000          SYSTEM LOSSES GW =           0.0000
        SYSTEM LOSSES SW =           0.0000          SYSTEM LOSSES SW =           0.0000

                TOTAL IN = 13040955392.0000                  TOTAL IN =           0.0000

          OUT:                                     OUT:
          ----                                     ----
               AG WELLS  =           0.0000                 AG WELLS  =           0.0000
      DIVERSION SEGMENTS =           0.0000        DIVERSION SEGMENTS =           0.0000
       IRRIGATION PONDS  =           0.0000         IRRIGATION PONDS  =           0.0000
           GW IRRIGATION = 11826811904.0000             GW IRRIGATION =           0.0000
           SW IRRIGATION =  1214164096.0000             SW IRRIGATION =           0.0000
        SYSTEM LOSSES GW =           0.0000          SYSTEM LOSSES GW =           0.0000
        SYSTEM LOSSES SW =           0.0000          SYSTEM LOSSES SW =           0.0000

               TOTAL OUT = 13040975872.0000                 TOTAL OUT =           0.0000

                IN - OUT =      -20480.0000                  IN - OUT =           0.0000

     PERCENT DISCREPANCY =          -0.00         PERCENT DISCREPANCY =           0.00



1
  VOLUMETRIC BUDGET FOR ENTIRE MODEL AT END OF TIME STEP   30, STRESS PERIOD  49
  ------------------------------------------------------------------------------

     CUMULATIVE VOLUMES      L**3       RATES FOR THIS TIME STEP      L**3/T
     ------------------                 ------------------------

           IN:                                      IN:
           ---                                      ---
             STORAGE     = 10172735488.0000               STORAGE     =           5.6776
       CONSTANT HEAD     =           0.0000         CONSTANT HEAD     =           0.0000
     HEAD DEP BOUNDS     =    36263436.0000       HEAD DEP BOUNDS     =           0.2886
      STREAM LEAKAGE     =  1559034880.0000        STREAM LEAKAGE     =          11.7632
        UZF RECHARGE     = 11014882304.0000          UZF RECHARGE     =           4.7598
               GW ET     =           0.0000                 GW ET     =           0.0000
     SURFACE LEAKAGE     =           0.0000       SURFACE LEAKAGE     =           0.0000
           AG WELLS      =           0.0000             AG WELLS      =           0.0000

                TOTAL IN = 22782916608.0000                  TOTAL IN =          22.4892

          OUT:                                     OUT:
          ----                                     ----
             STORAGE     =  9630729216.0000               STORAGE     =          12.2201
       CONSTANT HEAD     =           0.0000         CONSTANT HEAD     =           0.0000
     HEAD DEP BOUNDS     =    36672904.0000       HEAD DEP BOUNDS     =           0.2883
      STREAM LEAKAGE     =  1287032576.0000        STREAM LEAKAGE     =           9.9859
        UZF RECHARGE     =           0.0000          UZF RECHARGE     =           0.0000
               GW ET     =     1532757.2500                 GW ET     =           0.0000
     SURFACE LEAKAGE     =           0.0000       SURFACE LEAKAGE     =           0.0000
           AG WELLS      = 11826811904.0000             AG WELLS      =           0.0000

               TOTAL OUT = 22782779392.0000                 TOTAL OUT =          22.4943

                IN - OUT =      137216.0000                  IN - OUT =      -5.0907E-03

     PERCENT DISCREPANCY =           0.00         PERCENT DISCREPANCY =          -0.02






         TIME SUMMARY AT END OF TIME STEP   30 IN STRESS PERIOD   49
                    SECONDS     MINUTES      HOURS       DAYS        YEARS
                    -----------------------------------------------------------
   TIME STEP LENGTH  87667.      1461.1      24.352      1.0147     2.77799E-03
 STRESS PERIOD TIME 2.63000E+06  43833.      730.56      30.440     8.33397E-02
         TOTAL TIME 1.26325E+08 2.10542E+06  35090.      1462.1      4.0030    
1


 Run end date and time (yyyy/mm/dd hh:mm:ss): 2021/02/05 16:05:43
 Elapsed run time: 10.024 Seconds

