                                  MODFLOW-NWT-SWR1 
      U.S. GEOLOGICAL SURVEY MODULAR FINITE-DIFFERENCE GROUNDWATER-FLOW MODEL
                             VERSION 1.1.4 4/01/2018
                    BASED ON MODFLOW-2005 VERSION 1.12.00 02/03/2017

 LIST FILE: ./output/Agwater1_low.lst
                         UNIT    9

 OPENING ./input/Agwater1.ba6
 FILE TYPE:BAS6   UNIT   75   STATUS:OLD    
 FORMAT:FORMATTED              ACCESS:SEQUENTIAL          

 OPENING ./input/Agwater1.upw
 FILE TYPE:UPW   UNIT    7   STATUS:OLD    
 FORMAT:FORMATTED              ACCESS:SEQUENTIAL          

 OPENING ./input/Agwater1.dis
 FILE TYPE:DIS   UNIT    8   STATUS:OLD    
 FORMAT:FORMATTED              ACCESS:SEQUENTIAL          

 OPENING ./input/Agwater1.nwt
 FILE TYPE:NWT   UNIT   13   STATUS:OLD    
 FORMAT:FORMATTED              ACCESS:SEQUENTIAL          

 OPENING ./input/Agwater1.oc
 FILE TYPE:OC   UNIT   14   STATUS:OLD    
 FORMAT:FORMATTED              ACCESS:SEQUENTIAL          

 OPENING ./input/Agwater1.sfr
 FILE TYPE:SFR   UNIT   15   STATUS:OLD    
 FORMAT:FORMATTED              ACCESS:SEQUENTIAL          

 OPENING ./input/Agwater1.ghb
 FILE TYPE:GHB   UNIT   17   STATUS:OLD    
 FORMAT:FORMATTED              ACCESS:SEQUENTIAL          

 OPENING ./input/Agwater1.uzf
 FILE TYPE:UZF   UNIT   19   STATUS:OLD    
 FORMAT:FORMATTED              ACCESS:SEQUENTIAL          

 OPENING ./input/Agwater1.gag
 FILE TYPE:GAGE   UNIT   32   STATUS:OLD    
 FORMAT:FORMATTED              ACCESS:SEQUENTIAL          

 OPENING ./input/seg1_low.tab
 FILE TYPE:DATA   UNIT   55   STATUS:UNKNOWN
 FORMAT:FORMATTED              ACCESS:SEQUENTIAL          

 OPENING ./input/seg9.tab
 FILE TYPE:DATA   UNIT   56   STATUS:UNKNOWN
 FORMAT:FORMATTED              ACCESS:SEQUENTIAL          

 OPENING ./input/Agwater1.ag
 FILE TYPE:AG   UNIT   57   STATUS:OLD    
 FORMAT:FORMATTED              ACCESS:SEQUENTIAL          

 OPENING ./output/Agwater1_low.hed
 FILE TYPE:DATA   UNIT   62   STATUS:UNKNOWN
 FORMAT:FORMATTED              ACCESS:SEQUENTIAL          

 OPENING ./output/Agwater1gw_low.ts5
 FILE TYPE:DATA   UNIT  105   STATUS:UNKNOWN
 FORMAT:FORMATTED              ACCESS:SEQUENTIAL          

 OPENING ./output/Agwater1SW_low.ts9
 FILE TYPE:DATA   UNIT  107   STATUS:UNKNOWN
 FORMAT:FORMATTED              ACCESS:SEQUENTIAL          

 OPENING ./output/Agwater1SW_ET_low.ts9
 FILE TYPE:DATA   UNIT  108   STATUS:UNKNOWN
 FORMAT:FORMATTED              ACCESS:SEQUENTIAL          

 OPENING ./output/Agwater1_low.uzfot
 FILE TYPE:DATA(BINARY)   UNIT   61   STATUS:UNKNOWN
 FORMAT:BINARY                 ACCESS:SEQUENTIAL          

 OPENING ./output/Agwater1cbc_low.unf
 FILE TYPE:DATA(BINARY)   UNIT  102   STATUS:UNKNOWN
 FORMAT:BINARY                 ACCESS:SEQUENTIAL          

 OPENING ./output/Agwater1_low.uzf1
 FILE TYPE:DATA   UNIT   65   STATUS:UNKNOWN
 FORMAT:FORMATTED              ACCESS:SEQUENTIAL          

 OPENING ./output/Agwater1_low.uzf2
 FILE TYPE:DATA   UNIT   66   STATUS:UNKNOWN
 FORMAT:FORMATTED              ACCESS:SEQUENTIAL          

 OPENING ./output/Agwater1_low.uzf3
 FILE TYPE:DATA   UNIT   67   STATUS:UNKNOWN
 FORMAT:FORMATTED              ACCESS:SEQUENTIAL          

 OPENING ./output/Agwater1_low.uzf4
 FILE TYPE:DATA   UNIT   68   STATUS:UNKNOWN
 FORMAT:FORMATTED              ACCESS:SEQUENTIAL          

 OPENING ./output/Agwater1_low.flw
 FILE TYPE:DATA   UNIT   81   STATUS:UNKNOWN
 FORMAT:FORMATTED              ACCESS:SEQUENTIAL          

 OPENING ./output/Agwater1_low.sg1
 FILE TYPE:DATA   UNIT   83   STATUS:UNKNOWN
 FORMAT:FORMATTED              ACCESS:SEQUENTIAL          

 OPENING ./output/Agwater1_low.sg2
 FILE TYPE:DATA   UNIT   84   STATUS:UNKNOWN
 FORMAT:FORMATTED              ACCESS:SEQUENTIAL          

 OPENING ./output/Agwater1_low.sg3
 FILE TYPE:DATA   UNIT   85   STATUS:UNKNOWN
 FORMAT:FORMATTED              ACCESS:SEQUENTIAL          

 OPENING ./output/Agwater1_low.sg4
 FILE TYPE:DATA   UNIT   86   STATUS:UNKNOWN
 FORMAT:FORMATTED              ACCESS:SEQUENTIAL          

 OPENING ./output/Agwater1_low.sg5
 FILE TYPE:DATA   UNIT   87   STATUS:UNKNOWN
 FORMAT:FORMATTED              ACCESS:SEQUENTIAL          

 OPENING ./output/Agwater1_low.sg6
 FILE TYPE:DATA   UNIT   88   STATUS:UNKNOWN
 FORMAT:FORMATTED              ACCESS:SEQUENTIAL          

 OPENING ./output/Agwater1_low.sg7
 FILE TYPE:DATA   UNIT   89   STATUS:UNKNOWN
 FORMAT:FORMATTED              ACCESS:SEQUENTIAL          

 OPENING ./output/Agwater1_low.sg8
 FILE TYPE:DATA   UNIT   90   STATUS:UNKNOWN
 FORMAT:FORMATTED              ACCESS:SEQUENTIAL          

 OPENING ./output/Agwater1_low.sg9
 FILE TYPE:DATA   UNIT   91   STATUS:UNKNOWN
 FORMAT:FORMATTED              ACCESS:SEQUENTIAL          

 BAS -- BASIC PACKAGE, VERSION 1.1.4, 4/01/2018 INPUT READ FROM UNIT   75
 
 MODFLOW was compiled using mixed precision
 Precision of REAL variables:           6
 Precision of DOUBLE PRECISION variables:          15

 DISCRETIZATION INPUT DATA READ FROM UNIT    8
 #Test problem 2-- Discretization input
 #Example problem using the UZF1 Package
    1 LAYERS        15 ROWS        10 COLUMNS
   49 STRESS PERIOD(S) IN SIMULATION
 MODEL TIME UNIT IS SECONDS
 MODEL LENGTH UNIT IS FEET
  Confining bed flag for each layer:
   0

                     DELR =   5000.00    

                     DELC =   5000.00    



           TOP ELEVATION OF LAYER 1
 READING ON UNIT    8 WITH FORMAT: (10F7.0)            

            1           2           3           4           5           6           7           8           9          10
 ........................................................................................................................
   1    1105.       1105.       0.000       0.000       0.000       0.000       0.000       0.000       0.000       0.000    
   2    1105.       1095.       1105.       0.000       0.000       1100.       1100.       1110.       0.000       0.000    
   3    0.000       1100.       1085.       1080.       1078.       1076.       1073.       1090.       0.000       0.000    
   4    1110.       1100.       1090.       1085.       1076.       1080.       1080.       1070.       1100.       0.000    
   5    1110.       1100.       1085.       1080.       1078.       1074.       1077.       1066.       1075.       1080.    
   6    1105.       1095.       1080.       1077.       1073.       1069.       1070.       1063.       1085.       1095.    
   7    1105.       1090.       1075.       1072.       1070.       1065.       1065.       1069.       1090.       0.000    
   8    0.000       1080.       1070.       1068.       1063.       1060.       1063.       1067.       1090.       0.000    
   9    0.000       1075.       1065.       1062.       1058.       1052.       1055.       1065.       1090.       0.000    
  10    0.000       1070.       1060.       1055.       1046.       1046.       1044.       1060.       1088.       1100.    
  11    0.000       1055.       1050.       1045.       1041.       1042.       1040.       1050.       1075.       0.000    
  12    1027.       1028.       1028.       1032.       1032.       1033.       1032.       1040.       1060.       0.000    
  13    997.0       1004.       1008.       1014.       1020.       1027.       1032.       1038.       1050.       0.000    
  14    0.000       1030.       1040.       1045.       1050.       1050.       1050.       1050.       1044.       0.000    
  15    0.000       0.000       1080.       1080.       1080.       1080.       0.000       0.000       0.000       0.000    



             MODEL LAYER BOTTOM EL. FOR LAYER   1
 READING ON UNIT    8 WITH FORMAT: (10F7.0)            

            1           2           3           4           5           6           7           8           9          10
 ........................................................................................................................
   1    1000.       1000.       0.000       0.000       0.000       0.000       0.000       0.000       0.000       0.000    
   2    1000.       900.0       900.0       0.000       0.000       950.0       950.0       950.0       0.000       0.000    
   3    0.000       850.0       670.0       680.0       680.0       770.0       770.0       890.0       0.000       0.000    
   4    925.0       850.0       650.0       650.0       650.0       680.0       740.0       850.0       950.0       0.000    
   5    925.0       800.0       650.0       600.0       600.0       600.0       650.0       720.0       850.0       950.0    
   6    925.0       800.0       650.0       600.0       550.0       600.0       650.0       720.0       850.0       970.0    
   7    925.0       800.0       650.0       600.0       550.0       600.0       650.0       720.0       950.0       0.000    
   8    0.000       850.0       700.0       650.0       570.0       600.0       700.0       850.0       950.0       0.000    
   9    0.000       850.0       700.0       650.0       540.0       580.0       700.0       850.0       950.0       0.000    
  10    0.000       850.0       700.0       630.0       530.0       580.0       650.0       800.0       900.0       950.0    
  11    0.000       850.0       700.0       620.0       580.0       620.0       700.0       800.0       900.0       0.000    
  12    900.0       830.0       710.0       640.0       600.0       650.0       700.0       800.0       900.0       0.000    
  13    900.0       810.0       750.0       700.0       650.0       700.0       750.0       800.0       900.0       0.000    
  14    0.000       950.0       850.0       850.0       850.0       850.0       850.0       850.0       850.0       0.000    
  15    0.000       0.000       950.0       950.0       950.0       950.0       0.000       0.000       0.000       0.000    


 STRESS PERIOD     LENGTH       TIME STEPS     MULTIPLIER FOR DELT    SS FLAG
 ----------------------------------------------------------------------------
        1         86400.00          1                    1.000         SS
        2         2630000.         30                    1.000         TR
        3         2630000.         30                    1.000         TR
        4         2630000.         30                    1.000         TR
        5         2630000.         30                    1.000         TR
        6         2630000.         30                    1.000         TR
        7         2630000.         30                    1.000         TR
        8         2630000.         30                    1.000         TR
        9         2630000.         30                    1.000         TR
       10         2630000.         30                    1.000         TR
       11         2630000.         30                    1.000         TR
       12         2630000.         30                    1.000         TR
       13         2630000.         30                    1.000         TR
       14         2630000.         30                    1.000         TR
       15         2630000.         30                    1.000         TR
       16         2630000.         30                    1.000         TR
       17         2630000.         30                    1.000         TR
       18         2630000.         30                    1.000         TR
       19         2630000.         30                    1.000         TR
       20         2630000.         30                    1.000         TR
       21         2630000.         30                    1.000         TR
       22         2630000.         30                    1.000         TR
       23         2630000.         30                    1.000         TR
       24         2630000.         30                    1.000         TR
       25         2630000.         30                    1.000         TR
       26         2630000.         30                    1.000         TR
       27         2630000.         30                    1.000         TR
       28         2630000.         30                    1.000         TR
       29         2630000.         30                    1.000         TR
       30         2630000.         30                    1.000         TR
       31         2630000.         30                    1.000         TR
       32         2630000.         30                    1.000         TR
       33         2630000.         30                    1.000         TR
       34         2630000.         30                    1.000         TR
       35         2630000.         30                    1.000         TR
       36         2630000.         30                    1.000         TR
       37         2630000.         30                    1.000         TR
       38         2630000.         30                    1.000         TR
       39         2630000.         30                    1.000         TR
       40         2630000.         30                    1.000         TR
       41         2630000.         30                    1.000         TR
       42         2630000.         30                    1.000         TR
       43         2630000.         30                    1.000         TR
       44         2630000.         30                    1.000         TR
       45         2630000.         30                    1.000         TR
       46         2630000.         30                    1.000         TR
       47         2630000.         30                    1.000         TR
       48         2630000.         30                    1.000         TR
       49         2630000.         30                    1.000         TR

 COMBINED STEADY-STATE AND TRANSIENT SIMULATION



 
 #Test Simulation 2-- Example problem using the UZF1 Package                     
 #Modified from example Problem 1 of SFR1 documentation report                   
 THE FREE FORMAT OPTION HAS BEEN SELECTED



                     BOUNDARY ARRAY FOR LAYER   1
 READING ON UNIT   75 WITH FORMAT: (20I4)              

                1           2           3           4           5           6           7           8           9          10
 ............................................................................................................................
   1            1           1           0           0           0           0           0           0           0           0
   2            1           1           1           0           0           1           1           1           0           0
   3            0           1           1           1           1           1           1           1           0           0
   4            1           1           1           1           1           1           1           1           1           0
   5            1           1           1           1           1           1           1           1           1           1
   6            1           1           1           1           1           1           1           1           1           1
   7            1           1           1           1           1           1           1           1           1           0
   8            0           1           1           1           1           1           1           1           1           0
   9            0           1           1           1           1           1           1           1           1           0
  10            0           1           1           1           1           1           1           1           1           1
  11            0           1           1           1           1           1           1           1           1           0
  12            1           1           1           1           1           1           1           1           1           0
  13            1           1           1           1           1           1           1           1           1           0
  14            0           1           1           1           1           1           1           1           1           0
  15            0           0           1           1           1           1           0           0           0           0

 AQUIFER HEAD WILL BE SET TO   6999.0     AT ALL NO-FLOW NODES (IBOUND=0).



                       INITIAL HEAD FOR LAYER   1
 READING ON UNIT   75 WITH FORMAT: (10F8.0)            

            1           2           3           4           5           6           7           8           9          10
 ........................................................................................................................
   1    1093.       1089.       6999.       6999.       6999.       6999.       6999.       6999.       6999.       6999.    
   2    1090.       1087.       1081.       6999.       6999.       1072.       1071.       1071.       6999.       6999.    
   3    6999.       1079.       1078.       1074.       1072.       1071.       1069.       1068.       6999.       6999.    
   4    1069.       1071.       1070.       1067.       1065.       1064.       1064.       1066.       1066.       6999.    
   5    1065.       1064.       1063.       1062.       1061.       1061.       1060.       1062.       1066.       1068.    
   6    1060.       1058.       1057.       1056.       1056.       1057.       1057.       1059.       1062.       1066.    
   7    1056.       1053.       1052.       1051.       1051.       1052.       1053.       1055.       1056.       6999.    
   8    6999.       1046.       1046.       1046.       1046.       1046.       1048.       1050.       1050.       6999.    
   9    6999.       1039.       1039.       1039.       1040.       1041.       1042.       1043.       1044.       6999.    
  10    6999.       1031.       1032.       1033.       1034.       1035.       1037.       1038.       1039.       1042.    
  11    6999.       1021.       1023.       1027.       1029.       1030.       1032.       1034.       1036.       6999.    
  12    1001.       1009.       1015.       1020.       1023.       1026.       1029.       1030.       1034.       6999.    
  13    994.5      1000.0       1007.       1013.       1019.       1024.       1029.       1034.       1036.       6999.    
  14    6999.       1004.       1009.       1014.       1019.       1024.       1029.       1035.       1039.       6999.    
  15    6999.       6999.       1012.       1015.       1019.       1022.       6999.       6999.       6999.       6999.    

 OUTPUT CONTROL IS SPECIFIED ONLY AT TIME STEPS FOR WHICH OUTPUT IS DESIRED
 HEADS WILL BE SAVED WITH FORMAT: (10F10.3)           
 SAVED HEADS WILL BE LABELED
 COMPACT CELL-BY-CELL BUDGET FILES WILL BE WRITTEN
 HEAD PRINT FORMAT CODE IS   4    DRAWDOWN PRINT FORMAT CODE IS   0
 HEADS WILL BE SAVED ON UNIT   62    DRAWDOWNS WILL BE SAVED ON UNIT    0
 # NWT Input File
 # Test Problem 3 for MODFLOW-NWT
 #HEADTOL  FLUXTOL MAXITEROUT THICKFACT LINMETH IPRNWT IBOTAV OPTIONS DBDREDUCE DBDINCREASE DBDGAMMA MOMFACT BACKFLAG MAXBACKITER BACKTOL BACKREDUCE

 NWT1 -- Newton Solver, VERSION 1.1.4, 4/01/2018
         INPUT READ FROM UNIT 13

 SPECIFIED OPTION:
 SOLVER INPUT VALUES ARE SPECIFIED BY USER
 ***XMD linear solver will be used***
 
   CONVERGENCE CRITERION OF   0.100000E-03 FOR HEAD SOLUTION
   AND A TOLERANCE OF   0.100000E+01 FOR FLOW SOLUTION AND 
   A MAXIMUM OF   500 OUTER ITERATIONS. 


   D-B-D REDUCTION FACTOR OF    0.970000E+00 AND 
   A D-B-D INCREASE FACTOR OF    0.100000E-04 AND 
   A D-B-D RELAXATION OF    0.000000E+00 AND 
   A MOMENTUM FACTOR OF    0.100000E+00 .


 ***BACKTRACKING IS INACTIVE***
 XMD -- LINEAR SOLUTION BY XMD PACKAGE VERSION 1.30
     BY MOTOMU IBARAKI, OHIO STATE UNIVERSITY, COLOMBUS, OH
                 INPUT READ FROM UNIT 13
 ACCELERATION METHOD                    (IACL) =         1
 NODE ORDERING FLAG                   (NORDER) =         0
 LEVEL OF FILL                         (LEVEL) =         7
 MAXIMUM NUMBER OF ORTHOGONALIZATIONS  (NORTH) =         7
 INDEX FOR USING REDUCED SYSTEM      (IREDSYS) =         1
 RESID. REDUCTION CONVERGE CRITERION  (RRCTOL) =  0.000000E+00
 INDEX FOR USING DROP TOLERANCE     (IDROPTOL) =         1
 DROP TOLERANCE VALUE                  (EPSRN) =  0.500000E-02
 CONVERGENCE CRITERIA OF           (HCLOSEXMD) =  0.100000E-03
 MAX. NUMBER OF LINEAR ITERATIONS  (MXITERXMD) =        50


 UPW1 -- UPSTREAM WEIGHTING FLOW PACKAGE, VERSION 1.1.4, 4/01/2018
         INPUT READ FROM UNIT  7

 #Layer-Property Flow Package input for test simulation 2
 CELL-BY-CELL FLOWS WILL BE SAVED ON UNIT  102
 No named parameters

   LAYER FLAGS:
 LAYER       LAYTYP          LAYAVG    CHANI           LAYVKA           LAYWET
 ---------------------------------------------------------------------------
    1             1             0     1.000E+00             0             0

   INTERPRETATION OF LAYER FLAGS:
                        INTERBLOCK     HORIZONTAL    DATA IN
         LAYER TYPE   TRANSMISSIVITY   ANISOTROPY   ARRAY VKA   WETTABILITY
 LAYER   (LAYTYP)        (LAYAVG)      (CHANI)     (LAYVKA)       (LAYWET)
 ---------------------------------------------------------------------------
    1   CONVERTIBLE      HARMONIC     1.000E+00    VERTICAL K  NON-WETTABLE



              HYD. COND. ALONG ROWS FOR LAYER   1
 READING ON UNIT    7 WITH FORMAT: (10F5.0)            

            1           2           3           4           5           6           7           8           9          10
 ........................................................................................................................
   1   2.0000E-03  2.0000E-03   0.000       0.000       0.000       0.000       0.000       0.000       0.000       0.000    
   2   4.0000E-04  2.0000E-03  2.0000E-03   0.000       0.000      4.0000E-04  4.0000E-04  4.0000E-04   0.000       0.000    
   3    0.000      4.0000E-04  2.0000E-03  2.0000E-03  4.0000E-04  4.0000E-04  4.0000E-04  4.0000E-04   0.000       0.000    
   4   4.0000E-04  4.0000E-04  4.0000E-04  2.0000E-03  2.0000E-03  2.0000E-03  4.0000E-04  4.0000E-04  4.0000E-04   0.000    
   5   4.0000E-04  4.0000E-04  4.0000E-04  2.0000E-03  2.0000E-03  2.0000E-03  2.0000E-03  2.0000E-03  2.0000E-03  2.0000E-03
   6   4.0000E-04  4.0000E-04  4.0000E-04  2.0000E-03  2.0000E-03  2.0000E-03  2.0000E-03  2.0000E-03  4.0000E-04  4.0000E-04
   7   4.0000E-04  4.0000E-04  4.0000E-04  2.0000E-03  2.0000E-03  2.0000E-03  2.0000E-03  2.0000E-03  4.0000E-04   0.000    
   8    0.000      4.0000E-04  4.0000E-04  2.0000E-03  2.0000E-03  2.0000E-03  2.0000E-03  4.0000E-04  4.0000E-04   0.000    
   9    0.000      4.0000E-04  4.0000E-04  2.0000E-03  2.0000E-03  2.0000E-03  2.0000E-03  4.0000E-04  4.0000E-04   0.000    
  10    0.000      4.0000E-04  4.0000E-04  2.0000E-03  2.0000E-03  2.0000E-03  2.0000E-03  4.0000E-04  4.0000E-04  4.0000E-04
  11    0.000      4.0000E-04  4.0000E-04  2.0000E-03  2.0000E-03  2.0000E-03  2.0000E-03  4.0000E-04  4.0000E-04   0.000    
  12   4.0000E-04  4.0000E-04  2.0000E-03  2.0000E-03  2.0000E-03  2.0000E-03  2.0000E-03  4.0000E-04  4.0000E-04   0.000    
  13   2.0000E-03  2.0000E-03  2.0000E-03  2.0000E-03  2.0000E-03  2.0000E-03  2.0000E-03  2.0000E-03  2.0000E-03   0.000    
  14    0.000      4.0000E-04  4.0000E-04  4.0000E-04  4.0000E-04  4.0000E-04  4.0000E-04  4.0000E-04  2.0000E-03   0.000    
  15    0.000       0.000      4.0000E-04  4.0000E-04  4.0000E-04  4.0000E-04   0.000       0.000       0.000       0.000    

      VERTICAL HYD. COND. =  1.000000E-06 FOR LAYER   1

         SPECIFIC STORAGE =  1.000000E-06 FOR LAYER   1



                     SPECIFIC YIELD FOR LAYER   1
 READING ON UNIT    7 WITH FORMAT: (10F5.0)            

            1           2           3           4           5           6           7           8           9          10
 ........................................................................................................................
   1   0.2000      0.2000       0.000       0.000       0.000       0.000       0.000       0.000       0.000       0.000    
   2   0.1000      0.2000      0.2000       0.000       0.000      0.1000      0.1000      0.1000       0.000       0.000    
   3    0.000      0.1000      0.2000      0.2000      0.1000      0.1000      0.1000      0.1000       0.000       0.000    
   4   0.1000      0.1000      0.1000      0.2000      0.2000      0.2000      0.1000      0.1000      0.1000       0.000    
   5   0.1000      0.1000      0.1000      0.2000      0.2000      0.2000      0.2000      0.2000      0.2000      0.2000    
   6   0.1000      0.1000      0.1000      0.2000      0.2000      0.2000      0.2000      0.2000      0.1000      0.1000    
   7   0.1000      0.1000      0.1000      0.2000      0.2000      0.2000      0.2000      0.2000      0.1000       0.000    
   8    0.000      0.1000      0.1000      0.2000      0.2000      0.2000      0.2000      0.1000      0.1000       0.000    
   9    0.000      0.1000      0.1000      0.2000      0.2000      0.2000      0.2000      0.1000      0.1000       0.000    
  10    0.000      0.1000      0.1000      0.2000      0.2000      0.2000      0.2000      0.1000      0.1000      0.1000    
  11    0.000      0.1000      0.1000      0.2000      0.2000      0.2000      0.2000      0.1000      0.1000       0.000    
  12   0.1000      0.1000      0.2000      0.2000      0.2000      0.2000      0.2000      0.1000      0.1000       0.000    
  13   0.2000      0.2000      0.2000      0.2000      0.2000      0.2000      0.2000      0.2000      0.2000       0.000    
  14    0.000      0.1000      0.1000      0.1000      0.1000      0.1000      0.1000      0.1000      0.2000       0.000    
  15    0.000       0.000      0.1000      0.1000      0.1000      0.1000       0.000       0.000       0.000       0.000    

 GHB -- GENERAL-HEAD BOUNDARY PACKAGE, VERSION 7, 5/2/2005
         INPUT READ FROM UNIT   17
 No named parameters
 MAXIMUM OF      2 ACTIVE GHB CELLS AT ONE TIME
 CELL-BY-CELL FLOWS WILL BE PRINTED WHEN ICBCFL NOT 0


     0 GHB parameters

 SFR7 -- STREAMFLOW ROUTING PACKAGE, VERSION 1.0.5, 2012-04-05
         INPUT READ FROM UNIT  15
 #SFR2 Package input for Testing supplimental pumping and irrigation
 No named parameters

 PROCESSING SFR2 OPTIONS
 
          2 Specified inflow files will be read with a maximum of       1446 row entries per file
 
Stream loss will be calculated as a factor of the streambed hydraulic conductivity. Multiplication factor is equal to     0.1000000015E+00

 END PROCESSING SFR2 OPTIONS
 


 NUMBER OF STREAM REACHES IS   38

 NUMBER OF STREAM SEGMENTS IS    9

 NUMBER OF STREAM PARAMETERS IS    0

 NUMBER OF STREAM SEGMENTS DEFINED USING PARAMETERS IS              0

 MAXIMUM ERROR FOR STREAM LEAKAGE RATES IS  1.00E-06

 CONSTANT FOR MANNINGS EQUATION IS  1.4860E+00



 STREAM OUTPUT WILL BE WRITTEN TO FILE ON UNIT   81


   STREAM NETWORK DESCRIPTION: 

   LAYER    ROW    COL   SEGMENT   REACH     LENGTH
                          NUMBER   NUMBER    IN CELL        
   --------------------------------------------------
      1      1      1       1        1    4.5000E+03
      1      2      2       1        2    7.0000E+03
      1      3      3       1        3    6.0000E+03
      1      3      4       1        4    5.5500E+03
      1      4      5       2        1    6.5000E+03
      1      5      6       2        2    5.0000E+03
      1      6      6       2        3    5.0000E+03
      1      7      6       2        4    5.0000E+03
      1      8      6       2        5    5.0000E+03
      1      3      5       3        1    5.0000E+03
      1      3      6       3        2    5.0000E+03
      1      3      7       3        3    4.5000E+03
      1      4      8       3        4    6.0000E+03
      1      5      8       3        5    5.0000E+03
      1      6      8       3        6    2.0000E+03
      1      5     10       4        1    2.5000E+03
      1      5      9       4        2    5.0000E+03
      1      6      8       4        3    3.5000E+03
      1      6      8       5        1    4.0000E+03
      1      7      7       5        2    5.0000E+03
      1      8      7       5        3    3.5000E+03
      1      8      6       5        4    2.5000E+03
      1      9      6       6        1    5.0000E+03
      1     10      7       6        2    5.0000E+03
      1     11      7       6        3    5.0000E+03
      1     12      7       6        4    5.0000E+03
      1     13      7       6        5    2.0000E+03
      1     14      9       7        1    5.0000E+03
      1     13      8       7        2    5.5000E+03
      1     13      7       7        3    5.0000E+03
      1     13      6       8        1    5.0000E+03
      1     13      5       8        2    5.0000E+03
      1     13      4       8        3    5.0000E+03
      1     13      3       8        4    5.0000E+03
      1     13      2       8        5    5.0000E+03
      1     13      1       8        6    3.0000E+03
      1      8      6       9        1    3.0000E+03
      1      8      5       9        2    3.0000E+03




 UZF1 -- UNSATURATED FLOW PACKAGE, VERSION 1.5, 09/10/2019
         INPUT READ FROM UNIT 19
 #UZF Package input for test simulation 2
 No named parameters

 PROCESSING UZF OPTIONS
 
 
 INITIAL WATER CONTENT (THTI) WILL BE 
READ FOR THE FIRST SS OR TR STRESS PERIOD
 
 
 RESIDUAL WATER CONTENT (THTR) WILL BE 
READ AND USED FOR THE FIRST TRANSIENT STRESS 
PERIOD
 
 
AIR ENTRY PRESSURE AND ROOT PRESSURE WILL BE 
SPECIFIED BY USER AND UZ ET WILL BE SIMULATED 
AS PRESSURE-HEAD DEPENDENT
 
 
INFILTRATION WILL BE REJECTED USING 
LAND SURFACE K
 
 
HYDRAULIC CONDUCTIVITY OF LAND SURFACE 
WILL BE READ
 

 END PROCESSING UZF OPTIONS



            AREAL EXTENT OF UZ FLOW
 READING ON UNIT   19 WITH FORMAT: (20I4)              

                1           2           3           4           5           6           7           8           9          10
 ............................................................................................................................
   1            1           1           0           0           0           0           0           0           0           0
   2            1           1           1           0           0           1           1           1           0           0
   3            0           1           1           1           1           1           1           1           0           0
   4            1           1           1           1           1           1           1           1           1           0
   5            1           1           1           1           1           1           1           1           1           1
   6            1           1           1           1           1           1           1           1           1           1
   7            1           1           1           1           1           1           1           1           1           0
   8            0           1           1           1           1           1           1           1           1           0
   9            0           1           1           1           1           1           1           1           1           0
  10            0           1           1           1           1           1           1           1           1           1
  11            0           1           1           1           1           1           1           1           1           0
  12            1           1           1           1           1           1           1           1           1           0
  13            1           1           1           1           1           1           1           1           1           0
  14            0           1           1           1           1           1           1           1           1           0
  15            0           0           1           1           1           1           0           0           0           0
 OPTION 1 -- RECHARGE IN UZF TO TOP LAYER ONLY 



            ROUTING OVERLAND RUNOFF
 READING ON UNIT   19 WITH FORMAT: (20I4)              

                1           2           3           4           5           6           7           8           9          10
 ............................................................................................................................
   1            1           1           0           0           0           0           0           0           0           0
   2            1           1           1           0           0           3           3           3           0           0
   3            0           1           1           1           3           3           3           3           0           0
   4            8           8           2           2           2           2           2           3           3           0
   5            8           8           8           8           2           2           2           3           4           4
   6            8           8           8           8           8           2           2           4           4           4
   7            8           8           8           8           8           2           5           5           5           0
   8            0           8           8           8           8           2           5           5           5           0
   9            0           8           8           8           8           6           6           6           6           0
  10            0           8           8           8           8           6           6           6           6           6
  11            0           8           8           8           8           8           6           6           7           0
  12            8           8           8           8           8           8           6           7           7           0
  13            8           8           8           8           8           8           7           7           7           0
  14            0           8           8           8           8           8           7           7           7           0
  15            0           0           8           8           8           8           0           0           0           0



               SATURATED VERTICAL K
 READING ON UNIT   19 WITH FORMAT: (10F4.0)            

            1           2           3           4           5           6           7           8           9          10
 ........................................................................................................................
   1   4.6000E-05  4.6000E-05   0.000       0.000       0.000       0.000       0.000       0.000       0.000       0.000    
   2   4.6000E-05  4.6000E-05  4.6000E-05   0.000       0.000      4.6000E-05  4.6000E-05  4.6000E-05   0.000       0.000    
   3    0.000      4.6000E-05  4.6000E-05  4.6000E-05  4.6000E-05  4.6000E-05  4.6000E-05  4.6000E-05   0.000       0.000    
   4   4.6000E-05  4.6000E-05  4.6000E-05  4.6000E-05  4.6000E-05  4.6000E-05  4.6000E-05  4.6000E-05  4.6000E-05   0.000    
   5   4.6000E-05  4.6000E-05  4.6000E-05  4.6000E-05  4.6000E-05  4.6000E-05  4.6000E-05  4.6000E-05  4.6000E-05  4.6000E-05
   6   4.6000E-05  4.6000E-05  4.6000E-05  4.6000E-05  4.6000E-05  4.6000E-05  4.6000E-05  4.6000E-05  4.6000E-05  4.6000E-05
   7   4.6000E-05  4.6000E-05  4.6000E-05  4.6000E-05  4.6000E-05  4.6000E-05  4.6000E-05  4.6000E-05  4.6000E-05   0.000    
   8    0.000      4.6000E-05  4.6000E-05  4.6000E-05  4.6000E-05  4.6000E-05  4.6000E-05  4.6000E-05  4.6000E-05   0.000    
   9    0.000      4.6000E-05  4.6000E-05  4.6000E-05  4.6000E-05  4.6000E-05  4.6000E-05  4.6000E-05  4.6000E-05   0.000    
  10    0.000      4.6000E-05  4.6000E-05  4.6000E-05  4.6000E-05  4.6000E-05  4.6000E-05  4.6000E-05  4.6000E-05  4.6000E-05
  11    0.000      4.6000E-05  4.6000E-05  4.6000E-05  4.6000E-05  4.6000E-05  4.6000E-05  4.6000E-05  4.6000E-05   0.000    
  12   4.6000E-05  4.6000E-05  4.6000E-05  4.6000E-05  4.6000E-05  4.6000E-05  4.6000E-05  4.6000E-05  4.6000E-05   0.000    
  13   4.6000E-05  4.6000E-05  4.6000E-05  4.6000E-05  4.6000E-05  4.6000E-05  4.6000E-05  4.6000E-05  4.6000E-05   0.000    
  14    0.000      4.6000E-05  4.6000E-05  4.6000E-05  4.6000E-05  4.6000E-05  4.6000E-05  4.6000E-05  4.6000E-05   0.000    
  15    0.000       0.000      4.6000E-05  4.6000E-05  4.6000E-05  4.6000E-05   0.000       0.000       0.000       0.000    



            LAND SURFACE VERTICAL K
 READING ON UNIT   19 WITH FORMAT: (10F4.0)            

            1           2           3           4           5           6           7           8           9          10
 ........................................................................................................................
   1   1.0000E-05  1.0000E-05   0.000       0.000       0.000       0.000       0.000       0.000       0.000       0.000    
   2   1.0000E-05  1.0000E-05  1.0000E-05   0.000       0.000      1.0000E-05  1.0000E-05  1.0000E-05   0.000       0.000    
   3    0.000      1.0000E-05  1.0000E-05  1.0000E-05  1.0000E-05  1.0000E-05  1.0000E-05  1.0000E-05   0.000       0.000    
   4   1.0000E-05  1.0000E-05  1.0000E-05  1.0000E-05  1.0000E-05  1.0000E-05  1.0000E-05  1.0000E-05  1.0000E-05   0.000    
   5   1.0000E-05  1.0000E-05  1.0000E-05  1.0000E-05  1.0000E-05  1.0000E-05  1.0000E-05  1.0000E-05  1.0000E-05  1.0000E-05
   6   1.0000E-05  1.0000E-05  1.0000E-05  1.0000E-05  1.0000E-05  1.0000E-05  1.0000E-05  1.0000E-05  1.0000E-05  1.0000E-05
   7   1.0000E-05  1.0000E-05  1.0000E-05  1.0000E-05  1.0000E-05  1.0000E-05  1.0000E-05  1.0000E-05  1.0000E-05   0.000    
   8    0.000      1.0000E-05  1.0000E-05  1.0000E-05  1.0000E-05  1.0000E-05  1.0000E-05  1.0000E-05  1.0000E-05   0.000    
   9    0.000      1.0000E-05  1.0000E-05  1.0000E-05  1.0000E-05  1.0000E-05  1.0000E-05  1.0000E-05  1.0000E-05   0.000    
  10    0.000      1.0000E-05  1.0000E-05  1.0000E-05  1.0000E-05  1.0000E-05  1.0000E-05  1.0000E-05  1.0000E-05  1.0000E-05
  11    0.000      1.0000E-05  1.0000E-05  1.0000E-05  1.0000E-05  1.0000E-05  1.0000E-05  1.0000E-05  1.0000E-05   0.000    
  12   1.0000E-05  1.0000E-05  1.0000E-05  1.0000E-05  1.0000E-05  1.0000E-05  1.0000E-05  1.0000E-05  1.0000E-05   0.000    
  13   1.0000E-05  1.0000E-05  1.0000E-05  1.0000E-05  1.0000E-05  1.0000E-05  1.0000E-05  1.0000E-05  1.0000E-05   0.000    
  14    0.000      1.0000E-05  1.0000E-05  1.0000E-05  1.0000E-05  1.0000E-05  1.0000E-05  1.0000E-05  1.0000E-05   0.000    
  15    0.000       0.000      1.0000E-05  1.0000E-05  1.0000E-05  1.0000E-05   0.000       0.000       0.000       0.000    

     BROOKS-COREY EPSILON =   7.50000    

  SATURATED WATER CONTENT =  0.380000    

   RESIDUAL WATER CONTENT =  0.200000    

    INITIAL WATER CONTENT =  0.200000    

UNSATURATED FLOW RESULTS WILL BE PRINTED TO SEPARATE FILES FOR SELECTED MODEL CELLS, AND TIME STEPS AS DEFINED BY OUTPUT CONTROL PACKAGE 

SELECTED MODEL CELLS ARE: 
 ROW NUMBER  COLUMN NUMBER  FORTRAN UNIT NUMBER  OUTPUT OPTION


       6             4                 65                 1
       6             5                 66                 2
       8             4                 67                 3
       0             0                 68                 4



   9 GAGING STATIONS WERE SPECIFIED.
     (Lakes are identified by a negative value of the Lake Number)
     RECORDS WILL BE WRITTEN TO SEPARATE OUTPUT FILES REPRESENTED BY FOLLOWING UNIT NUMBERS:

 Stream Gages:
  GAGE #   SEGMENT   REACH   UNIT   OUTTYPE
       1       1       4      83       1
       2       2       5      84       1
       3       3       5      85       1
       4       4       3      86       1
       5       5       4      87       4
       6       6       5      88       4
       7       7       3      89       4
       8       8       6      90       4
       9       9       1      91       5





 AG -- AG PACKAGE FOR NWT VERSION 1.1.3,  8/01/2017 INPUT READ FROM UNIT   57
 # AG options

 PROCESSING AG OPTIONS
 
 AGRICULTURAL DEMANDS WILL BE CALCULATED USING ET DEFICIT
 
 
 OPTION TO APPLY SURFACE WATER AS IRRIGATION IS ACTIVE. DIVERTED SURFACE WATER WILL BE APPLIED TO          1 CELLS/RHUS.
 
 
 OPTION TO PUMP SUPPLEMENTARY WATER FOR SURFACE DIVERSION SHORTFALL IS ACTIVATED.  A TOTAL OF             6 SUPPLEMENTAL WELLS ARE ACTIVE
 
 
 OPTION TO APPLY PUMPED WATER AS IRRIGATION IS ACTIVE. PUMPED IRRIGATION WATER WILL BE APPLIED TO          6 CELLS/RHUS.
 
 
 THE MAXIMUM NUMBER OF WELLS FOR SUPPLEMENTING DIVERSIONS OR APPLYING IRRIGATION IS          6 WELLS.
 
 
  UNFORMATTED CELL BY CELL RATES FOR SUP AND IRR WELLS WILL BE SAVED TO FILE UNIT NUMBER         -2
 
 
  UNFORMATTED CELL BY CELL RATES FOR SUP AND IRR WELLS WILL BE SAVED TO FILE UNIT NUMBER         -2
 
 
  UNFORMATTED CELL BY CELL RATES FOR SUP AND IRR WELLS WILL BE SAVED TO FILE UNIT NUMBER         -2
 
 
  UNFORMATTED CELL BY CELL RATES FOR SUP AND IRR WELLS WILL BE SAVED TO FILE UNIT NUMBER         -2
 
 
  GROUND WATER IRRIGATION, POTENTIAL AND ACTUAL ET WILL BE SAVED TO TIMES SERIES OUTPUT FILES.
 
 
  SURFACE WATER IRRIGATION, POTENTIAL AND ACTUAL ET WILL BE SAVED TO TIMES SERIES OUTPUT FILES.
 
 
  SURFACE WATER IRRIGATION, POTENTIAL AND ACTUAL ET WILL BE SAVED TO TIMES SERIES OUTPUT FILES.
 

 END PROCESSING AG OPTIONS
 # AG time series

 PROCESSING TIME SERIES

 FINISHED READING TIME SERIES
 A total number of          1 AG output time series files were activated for SURFACE WATER 
 A total number of          1 AG output time series files were activated for GROUNDWATER 
 A total number of          1 AG output time series files were activated for SURFACE WATER ET
 A total number of          0 AG output time series files were activated for GROUNDWATER ET
1
                            STRESS PERIOD NO.    1, LENGTH =   86400.00    
                            -----------------------------------------------

                              NUMBER OF TIME STEPS =     1

                               MULTIPLIER FOR DELT =     1.000

                            INITIAL TIME STEP SIZE =   86400.00    

 BOUND. NO. LAYER   ROW   COL     STAGE      CONDUCTANCE         
 ----------------------------------------------------------------
      1      1     13      1       988.0          0.3800E-01
      2      1     14      9       1045.          0.3800E-01

      2 GHB CELLS



 CLASSIFICATION & COUNT OF STREAM SEGMENTS BASED ON SOURCE OF INFLOW:

                HEADWATER     DIVERSION     RECEIVES TRIBUTARY FLOW
                ---------     ---------     -----------------------
                     3              2               4



                    INPUT DATA FOR EACH STREAM SEGMENT
 ---------------------------------------------------------------------------------------------

 SEGMENT    SEG.     INFLOW   OVERLAND   STREAM    STREAM   ICALC  OUTFLOW  DIVERSION PRIORITY
    NO.    LENGTH     RATE     RUNOFF      ET       PPT.    METH.  TO SEG.  FROM SEG.    NO.

      1  2.305E+04 2.500E+01 0.000E+00 0.000E+00 0.000E+00    4        2        0        0
      2  2.650E+04 0.000E+00 0.000E+00 0.000E+00 0.000E+00    1        6        0        0
      3  2.750E+04 2.000E+00 0.000E+00 0.000E+00 0.000E+00    0        5        1        0
      4  1.100E+04 1.000E+01 0.000E+00 0.000E+00 0.000E+00    1        5        0        0
      5  1.500E+04 0.000E+00 0.000E+00 0.000E+00 0.000E+00    3        6        0        0
      6  2.200E+04 0.000E+00 0.000E+00 0.000E+00 0.000E+00    1        8        0        0
      7  1.550E+04 1.500E+02 0.000E+00 0.000E+00 0.000E+00    2        8        0        0
      8  2.800E+04 0.000E+00 0.000E+00 0.000E+00 0.000E+00    2        0        0        0
      9  6.000E+03 0.000E+00 0.000E+00 0.000E+00 0.000E+00    1        0        2        0


         STREAMBED PROPERTIES AND STREAM DIMENSIONS

 SEGMENT     BED HYD. COND.      BED THICKNESS     ELEV.-TOP OF BED     WIDTH OF STREAM     DEPTH OF STREAM    STREAM ROUGHNESS
    No.     UPPER     LOWER     UPPER     LOWER     UPPER     LOWER     UPPER     LOWER     UPPER     LOWER   CHANNEL      BANK

     1  3.000E-05 3.000E-05 3.000E+00 3.000E+00 1.095E+03 1.075E+03
     2  3.000E-05 3.000E-05 3.000E+00 3.000E+00 1.075E+03 1.050E+03 1.200E+01 1.200E+01                     3.000E-02
     3  3.000E-05 3.000E-05 2.000E+00 2.000E+00 1.075E+03 1.060E+03 1.000E+01 6.000E+00 2.000E+00 1.000E+00
     4  3.000E-05 3.000E-05 3.000E+00 3.000E+00 1.080E+03 1.060E+03 1.000E+01 1.000E+01                     3.000E-02
     5  3.000E-05 3.000E-05 3.000E+00 3.000E+00 1.060E+03 1.045E+03
     6  3.000E-05 3.000E-05 3.000E+00 3.000E+00 1.045E+03 1.025E+03 1.200E+01 1.200E+01                     3.000E-02
     7  6.000E-05 6.000E-05 3.000E+00 3.000E+00 1.040E+03 1.025E+03                                         2.500E-02 4.500E-02
     8  6.000E-05 6.000E-05 3.000E+00 3.000E+00 1.025E+03 9.900E+02                                         2.500E-02 4.500E-02
     9  0.000E+00 0.000E+00 3.000E+00 3.000E+00 1.079E+03 1.078E+03 4.000E+00 4.000E+00                     3.000E-02

  EIGHT POINT CROSS-SECTION DATA FOR SEGMENTS WITH ICALC = 2
    X VALUES X VALUES START FROM LEFT SIDE LOOKING DOWNSTREAM

     SEGMENT NO.        X1        X2        X3        X4        X5        X6        X7        X8
            7      0.000E+00 1.000E+01 8.000E+01 1.000E+02 1.500E+02 1.700E+02 2.400E+02 2.500E+02
            8      0.000E+00 1.000E+01 8.000E+01 1.000E+02 1.500E+02 1.700E+02 2.400E+02 2.500E+02

    Z VALUES ARE RELATIVE TO STREAMBED ELEVATION

     SEGMENT NO.          Z1        Z2        Z3        Z4        Z5        Z6        Z7        Z8
            7      2.000E+01 1.300E+01 1.000E+01 2.000E+00 0.000E+00 1.000E+01 1.300E+01 2.000E+01
            8      2.500E+01 1.700E+01 1.300E+01 4.000E+00 0.000E+00 1.000E+01 1.600E+01 2.000E+01

 STREAMFLOW RELATION WITH DEPTH IS BASED ON EQUATION Q = CDPTH*(DEPTH)**FDPTH
 STREAMFLOW RELATION WITH WIDTH IS BASED ON EQUATION Q = AWDTH*(WIDTH)**BWDTH

 SEGMENT NO.      CDPTH     FDPTH    AWDTH     BWDTH

          5 3.000E-01 3.500E-01 3.800E+00 6.000E-01

 STREAMFLOW RELATION WITH DEPTH AND WIDTH IS BASED ON TABULATED VALUES

  SEGMENT NO.   STREAMFLOW       DEPTH       WIDTH

          1     5.0000E-01   2.5000E-01   3.0000E+00
          1     1.0000E+00   4.0000E-01   3.5000E+00
          1     2.0000E+00   5.5000E-01   4.2000E+00
          1     4.0000E+00   7.0000E-01   5.3000E+00
          1     7.0000E+00   8.0000E-01   7.0000E+00
          1     1.0000E+01   9.0000E-01   8.5000E+00
          1     2.0000E+01   1.1000E+00   1.2000E+01
          1     3.0000E+01   1.2500E+00   1.4000E+01
          1     5.0000E+01   1.4000E+00   1.7000E+01
          1     7.5000E+01   1.7000E+00   2.0000E+01
          1     1.0000E+02   1.8000E+00   2.2000E+01



TABULAR INFLOWS WERE READ FOR SEGMENT      1
FROM FILE UNIT NUMBER     55

          TIMES                    INFLOWS
         0.0000000000E+00     0.1875000000E+01
         0.8640000000E+05     0.8250000000E+01
         0.2760000000E+07     0.1575000000E+02
         0.5270000000E+07     0.2887500000E+02
         0.7950000000E+07     0.1050000000E+02
         0.1050000000E+08     0.3712500000E+02
         0.1320000000E+08     0.3112500000E+02
         0.1580000000E+08     0.2812500000E+02
         0.1850000000E+08     0.2287500000E+02
         0.2120000000E+08     0.1762500000E+02
         0.2380000000E+08     0.1312500000E+02
         0.2640000000E+08     0.9750000000E+01
         0.2900000000E+08     0.8625000000E+01
         0.3170000000E+08     0.7125000000E+01
         0.3440000000E+08     0.7875000000E+01
         0.3680000000E+08     0.3675000000E+02
         0.3950000000E+08     0.2812500000E+02
         0.4210000000E+08     0.2362500000E+02
         0.4480000000E+08     0.2175000000E+02
         0.4730000000E+08     0.2025000000E+02
         0.5000000000E+08     0.1387500000E+02
         0.5270000000E+08     0.9375000000E+01
         0.5530000000E+08     0.8250000000E+01
         0.5800000000E+08     0.7875000000E+01
         0.6060000000E+08     0.7500000000E+01
         0.6320000000E+08     0.7125000000E+01
         0.6330000000E+08     0.8250000000E+01
         0.6600000000E+08     0.1575000000E+02
         0.6850000000E+08     0.2887500000E+02
         0.7120000000E+08     0.1050000000E+02
         0.7370000000E+08     0.3712500000E+02
         0.7640000000E+08     0.3112500000E+02
         0.7900000000E+08     0.2812500000E+02
         0.8170000000E+08     0.2287500000E+02
         0.8440000000E+08     0.1762500000E+02
         0.8700000000E+08     0.1312500000E+02
         0.8960000000E+08     0.9750000000E+01
         0.9220000000E+08     0.8625000000E+01
         0.9490000000E+08     0.7125000000E+01
         0.9760000000E+08     0.7875000000E+01
         0.1000000000E+09     0.3675000000E+02
         0.1030000000E+09     0.2812500000E+02
         0.1050000000E+09     0.2362500000E+02
         0.1080000000E+09     0.2175000000E+02
         0.1110000000E+09     0.2025000000E+02
         0.1130000000E+09     0.1387500000E+02
         0.1160000000E+09     0.9375000000E+01
         0.1190000000E+09     0.8250000000E+01
         0.1210000000E+09     0.7875000000E+01
         0.1240000000E+09     0.7500000000E+01
         0.1260000000E+09     0.7125000000E+01
TABULAR INFLOWS WERE READ FOR SEGMENT      9
FROM FILE UNIT NUMBER     56

          TIMES                    INFLOWS
         0.0000000000E+00     0.1000000000E+03
         0.8640000000E+05     0.1000000000E+03
         0.1730000000E+06     0.1000000000E+03
         0.2590000000E+06     0.1000000000E+03
         0.3460000000E+06     0.1000000000E+03
         0.4320000000E+06     0.1000000000E+03
         0.5180000000E+06     0.1000000000E+03
         0.6050000000E+06     0.1000000000E+03
         0.6910000000E+06     0.1000000000E+03
         0.7780000000E+06     0.1000000000E+03
         0.8640000000E+06     0.1000000000E+03
         0.9500000000E+06     0.1000000000E+03
         0.1040000000E+07     0.1000000000E+03
         0.1120000000E+07     0.1000000000E+03
         0.1210000000E+07     0.1000000000E+03
         0.1300000000E+07     0.1000000000E+03
         0.1380000000E+07     0.1000000000E+03
         0.1470000000E+07     0.1000000000E+03
         0.1560000000E+07     0.1000000000E+03
         0.1640000000E+07     0.1000000000E+03
         0.1730000000E+07     0.1000000000E+03
         0.1810000000E+07     0.1000000000E+03
         0.1900000000E+07     0.1000000000E+03
         0.1990000000E+07     0.1000000000E+03
         0.2070000000E+07     0.1000000000E+03
         0.2160000000E+07     0.1000000000E+03
         0.2250000000E+07     0.1000000000E+03
         0.2330000000E+07     0.1000000000E+03
         0.2420000000E+07     0.1000000000E+03
         0.2510000000E+07     0.1000000000E+03
         0.2590000000E+07     0.1000000000E+03
         0.2680000000E+07     0.1000000000E+03
         0.2760000000E+07     0.1000000000E+03
         0.2850000000E+07     0.1000000000E+03
         0.2940000000E+07     0.1000000000E+03
         0.3020000000E+07     0.1000000000E+03
         0.3110000000E+07     0.1000000000E+03
         0.3200000000E+07     0.1000000000E+03
         0.3280000000E+07     0.1000000000E+03
         0.3370000000E+07     0.1000000000E+03
         0.3460000000E+07     0.1000000000E+03
         0.3540000000E+07     0.1000000000E+03
         0.3630000000E+07     0.1000000000E+03
         0.3720000000E+07     0.1000000000E+03
         0.3800000000E+07     0.1000000000E+03
         0.3890000000E+07     0.1000000000E+03
         0.3970000000E+07     0.1000000000E+03
         0.4060000000E+07     0.1000000000E+03
         0.4150000000E+07     0.1000000000E+03
         0.4230000000E+07     0.1000000000E+03
         0.4320000000E+07     0.1000000000E+03
         0.4410000000E+07     0.1000000000E+03
         0.4490000000E+07     0.1000000000E+03
         0.4580000000E+07     0.1000000000E+03
         0.4670000000E+07     0.1000000000E+03
         0.4750000000E+07     0.1000000000E+03
         0.4840000000E+07     0.1000000000E+03
         0.4920000000E+07     0.1000000000E+03
         0.5010000000E+07     0.1000000000E+03
         0.5100000000E+07     0.1000000000E+03
         0.5180000000E+07     0.1000000000E+03
         0.5270000000E+07     0.1000000000E+03
         0.5360000000E+07     0.1000000000E+03
         0.5440000000E+07     0.1000000000E+03
         0.5530000000E+07     0.1000000000E+03
         0.5620000000E+07     0.1000000000E+03
         0.5700000000E+07     0.1000000000E+03
         0.5790000000E+07     0.1000000000E+03
         0.5880000000E+07     0.1000000000E+03
         0.5960000000E+07     0.1000000000E+03
         0.6050000000E+07     0.1000000000E+03
         0.6130000000E+07     0.1000000000E+03
         0.6220000000E+07     0.1000000000E+03
         0.6310000000E+07     0.1000000000E+03
         0.6390000000E+07     0.1000000000E+03
         0.6480000000E+07     0.1000000000E+03
         0.6570000000E+07     0.1000000000E+03
         0.6650000000E+07     0.1000000000E+03
         0.6740000000E+07     0.1000000000E+03
         0.6830000000E+07     0.1000000000E+03
         0.6910000000E+07     0.1000000000E+03
         0.7000000000E+07     0.1000000000E+03
         0.7080000000E+07     0.1000000000E+03
         0.7170000000E+07     0.1000000000E+03
         0.7260000000E+07     0.1000000000E+03
         0.7340000000E+07     0.1000000000E+03
         0.7430000000E+07     0.1000000000E+03
         0.7520000000E+07     0.1000000000E+03
         0.7600000000E+07     0.1000000000E+03
         0.7690000000E+07     0.1000000000E+03
         0.7780000000E+07     0.1000000000E+03
         0.7860000000E+07     0.1000000000E+03
         0.7950000000E+07     0.1000000000E+03
         0.8040000000E+07     0.1000000000E+03
         0.8120000000E+07     0.1000000000E+03
         0.8210000000E+07     0.1000000000E+03
         0.8290000000E+07     0.1000000000E+03
         0.8380000000E+07     0.1000000000E+03
         0.8470000000E+07     0.1000000000E+03
         0.8550000000E+07     0.1000000000E+03
         0.8640000000E+07     0.1000000000E+03
         0.8730000000E+07     0.1000000000E+03
         0.8810000000E+07     0.1000000000E+03
         0.8900000000E+07     0.1000000000E+03
         0.8990000000E+07     0.1000000000E+03
         0.9070000000E+07     0.1000000000E+03
         0.9160000000E+07     0.1000000000E+03
         0.9240000000E+07     0.1000000000E+03
         0.9330000000E+07     0.1000000000E+03
         0.9420000000E+07     0.1000000000E+03
         0.9500000000E+07     0.1000000000E+03
         0.9590000000E+07     0.1000000000E+03
         0.9680000000E+07     0.1000000000E+03
         0.9760000000E+07     0.1000000000E+03
         0.9850000000E+07     0.1000000000E+03
         0.9940000000E+07     0.1000000000E+03
         0.1000000000E+08     0.1000000000E+03
         0.1010000000E+08     0.1000000000E+03
         0.1020000000E+08     0.1000000000E+03
         0.1030000000E+08     0.1000000000E+03
         0.1040000000E+08     0.1000000000E+03
         0.1050000000E+08     0.1000000000E+03
         0.1050000000E+08     0.1000000000E+03
         0.1060000000E+08     0.1000000000E+03
         0.1070000000E+08     0.1000000000E+03
         0.1080000000E+08     0.1000000000E+03
         0.1090000000E+08     0.1000000000E+03
         0.1100000000E+08     0.1000000000E+03
         0.1110000000E+08     0.1000000000E+03
         0.1110000000E+08     0.1000000000E+03
         0.1120000000E+08     0.1000000000E+03
         0.1130000000E+08     0.1000000000E+03
         0.1140000000E+08     0.1000000000E+03
         0.1150000000E+08     0.1000000000E+03
         0.1160000000E+08     0.1000000000E+03
         0.1170000000E+08     0.1000000000E+03
         0.1180000000E+08     0.1000000000E+03
         0.1180000000E+08     0.1000000000E+03
         0.1190000000E+08     0.1000000000E+03
         0.1200000000E+08     0.1000000000E+03
         0.1210000000E+08     0.1000000000E+03
         0.1220000000E+08     0.1000000000E+03
         0.1230000000E+08     0.1000000000E+03
         0.1240000000E+08     0.1000000000E+03
         0.1240000000E+08     0.1000000000E+03
         0.1250000000E+08     0.1000000000E+03
         0.1260000000E+08     0.1000000000E+03
         0.1270000000E+08     0.1000000000E+03
         0.1280000000E+08     0.1000000000E+03
         0.1290000000E+08     0.1000000000E+03
         0.1300000000E+08     0.1000000000E+03
         0.1300000000E+08     0.1000000000E+03
         0.1310000000E+08     0.1000000000E+03
         0.1320000000E+08     0.1000000000E+03
         0.1330000000E+08     0.1000000000E+03
         0.1340000000E+08     0.1000000000E+03
         0.1350000000E+08     0.1000000000E+03
         0.1360000000E+08     0.1000000000E+03
         0.1370000000E+08     0.1000000000E+03
         0.1370000000E+08     0.1000000000E+03
         0.1380000000E+08     0.1000000000E+03
         0.1390000000E+08     0.1000000000E+03
         0.1400000000E+08     0.1000000000E+03
         0.1410000000E+08     0.1000000000E+03
         0.1420000000E+08     0.1000000000E+03
         0.1430000000E+08     0.1000000000E+03
         0.1430000000E+08     0.1000000000E+03
         0.1440000000E+08     0.1000000000E+03
         0.1450000000E+08     0.1000000000E+03
         0.1460000000E+08     0.1000000000E+03
         0.1470000000E+08     0.1000000000E+03
         0.1480000000E+08     0.1000000000E+03
         0.1490000000E+08     0.1000000000E+03
         0.1490000000E+08     0.1000000000E+03
         0.1500000000E+08     0.1000000000E+03
         0.1510000000E+08     0.1000000000E+03
         0.1520000000E+08     0.1000000000E+03
         0.1530000000E+08     0.1000000000E+03
         0.1540000000E+08     0.1000000000E+03
         0.1550000000E+08     0.1000000000E+03
         0.1560000000E+08     0.1000000000E+03
         0.1560000000E+08     0.1000000000E+03
         0.1570000000E+08     0.1000000000E+03
         0.1580000000E+08     0.1000000000E+03
         0.1590000000E+08     0.1000000000E+03
         0.1600000000E+08     0.1000000000E+03
         0.1610000000E+08     0.1000000000E+03
         0.1620000000E+08     0.1000000000E+03
         0.1620000000E+08     0.1000000000E+03
         0.1630000000E+08     0.1000000000E+03
         0.1640000000E+08     0.1000000000E+03
         0.1650000000E+08     0.1000000000E+03
         0.1660000000E+08     0.1000000000E+03
         0.1670000000E+08     0.1000000000E+03
         0.1680000000E+08     0.1000000000E+03
         0.1680000000E+08     0.1000000000E+03
         0.1690000000E+08     0.1000000000E+03
         0.1700000000E+08     0.1000000000E+03
         0.1710000000E+08     0.1000000000E+03
         0.1720000000E+08     0.1000000000E+03
         0.1730000000E+08     0.1000000000E+03
         0.1740000000E+08     0.1000000000E+03
         0.1750000000E+08     0.1000000000E+03
         0.1750000000E+08     0.1000000000E+03
         0.1760000000E+08     0.1000000000E+03
         0.1770000000E+08     0.1000000000E+03
         0.1780000000E+08     0.1000000000E+03
         0.1790000000E+08     0.1000000000E+03
         0.1800000000E+08     0.1000000000E+03
         0.1810000000E+08     0.1000000000E+03
         0.1810000000E+08     0.1000000000E+03
         0.1820000000E+08     0.1000000000E+03
         0.1830000000E+08     0.1000000000E+03
         0.1840000000E+08     0.1000000000E+03
         0.1850000000E+08     0.1000000000E+03
         0.1860000000E+08     0.1000000000E+03
         0.1870000000E+08     0.1000000000E+03
         0.1870000000E+08     0.1000000000E+03
         0.1880000000E+08     0.1000000000E+03
         0.1890000000E+08     0.1000000000E+03
         0.1900000000E+08     0.1000000000E+03
         0.1910000000E+08     0.1000000000E+03
         0.1920000000E+08     0.1000000000E+03
         0.1930000000E+08     0.1000000000E+03
         0.1940000000E+08     0.1000000000E+03
         0.1940000000E+08     0.1000000000E+03
         0.1950000000E+08     0.1000000000E+03
         0.1960000000E+08     0.1000000000E+03
         0.1970000000E+08     0.1000000000E+03
         0.1980000000E+08     0.1000000000E+03
         0.1990000000E+08     0.1000000000E+03
         0.2000000000E+08     0.1000000000E+03
         0.2000000000E+08     0.1000000000E+03
         0.2010000000E+08     0.1000000000E+03
         0.2020000000E+08     0.1000000000E+03
         0.2030000000E+08     0.1000000000E+03
         0.2040000000E+08     0.1000000000E+03
         0.2050000000E+08     0.1000000000E+03
         0.2060000000E+08     0.1000000000E+03
         0.2070000000E+08     0.1000000000E+03
         0.2070000000E+08     0.1000000000E+03
         0.2080000000E+08     0.1000000000E+03
         0.2090000000E+08     0.1000000000E+03
         0.2100000000E+08     0.1000000000E+03
         0.2110000000E+08     0.1000000000E+03
         0.2120000000E+08     0.1000000000E+03
         0.2130000000E+08     0.1000000000E+03
         0.2130000000E+08     0.1000000000E+03
         0.2140000000E+08     0.1000000000E+03
         0.2150000000E+08     0.1000000000E+03
         0.2160000000E+08     0.1000000000E+03
         0.2170000000E+08     0.1000000000E+03
         0.2180000000E+08     0.1000000000E+03
         0.2190000000E+08     0.1000000000E+03
         0.2190000000E+08     0.1000000000E+03
         0.2200000000E+08     0.1000000000E+03
         0.2210000000E+08     0.1000000000E+03
         0.2220000000E+08     0.1000000000E+03
         0.2230000000E+08     0.1000000000E+03
         0.2240000000E+08     0.1000000000E+03
         0.2250000000E+08     0.1000000000E+03
         0.2260000000E+08     0.1000000000E+03
         0.2260000000E+08     0.1000000000E+03
         0.2270000000E+08     0.1000000000E+03
         0.2280000000E+08     0.1000000000E+03
         0.2290000000E+08     0.1000000000E+03
         0.2300000000E+08     0.1000000000E+03
         0.2310000000E+08     0.1000000000E+03
         0.2320000000E+08     0.1000000000E+03
         0.2320000000E+08     0.1000000000E+03
         0.2330000000E+08     0.1000000000E+03
         0.2340000000E+08     0.1000000000E+03
         0.2350000000E+08     0.1000000000E+03
         0.2360000000E+08     0.1000000000E+03
         0.2370000000E+08     0.1000000000E+03
         0.2380000000E+08     0.1000000000E+03
         0.2380000000E+08     0.1000000000E+03
         0.2390000000E+08     0.1000000000E+03
         0.2400000000E+08     0.1000000000E+03
         0.2410000000E+08     0.1000000000E+03
         0.2420000000E+08     0.1000000000E+03
         0.2430000000E+08     0.1000000000E+03
         0.2440000000E+08     0.1000000000E+03
         0.2450000000E+08     0.1000000000E+03
         0.2450000000E+08     0.1000000000E+03
         0.2460000000E+08     0.1000000000E+03
         0.2470000000E+08     0.1000000000E+03
         0.2480000000E+08     0.1000000000E+03
         0.2490000000E+08     0.1000000000E+03
         0.2500000000E+08     0.1000000000E+03
         0.2510000000E+08     0.1000000000E+03
         0.2510000000E+08     0.1000000000E+03
         0.2520000000E+08     0.1000000000E+03
         0.2530000000E+08     0.1000000000E+03
         0.2540000000E+08     0.1000000000E+03
         0.2550000000E+08     0.1000000000E+03
         0.2560000000E+08     0.1000000000E+03
         0.2570000000E+08     0.1000000000E+03
         0.2570000000E+08     0.1000000000E+03
         0.2580000000E+08     0.1000000000E+03
         0.2590000000E+08     0.1000000000E+03
         0.2600000000E+08     0.1000000000E+03
         0.2610000000E+08     0.1000000000E+03
         0.2620000000E+08     0.1000000000E+03
         0.2630000000E+08     0.1000000000E+03
         0.2640000000E+08     0.1000000000E+03
         0.2640000000E+08     0.1000000000E+03
         0.2650000000E+08     0.1000000000E+03
         0.2660000000E+08     0.1000000000E+03
         0.2670000000E+08     0.1000000000E+03
         0.2680000000E+08     0.1000000000E+03
         0.2690000000E+08     0.1000000000E+03
         0.2700000000E+08     0.1000000000E+03
         0.2700000000E+08     0.1000000000E+03
         0.2710000000E+08     0.1000000000E+03
         0.2720000000E+08     0.1000000000E+03
         0.2730000000E+08     0.1000000000E+03
         0.2740000000E+08     0.1000000000E+03
         0.2750000000E+08     0.1000000000E+03
         0.2760000000E+08     0.1000000000E+03
         0.2760000000E+08     0.1000000000E+03
         0.2770000000E+08     0.1000000000E+03
         0.2780000000E+08     0.1000000000E+03
         0.2790000000E+08     0.1000000000E+03
         0.2800000000E+08     0.1000000000E+03
         0.2810000000E+08     0.1000000000E+03
         0.2820000000E+08     0.1000000000E+03
         0.2830000000E+08     0.1000000000E+03
         0.2830000000E+08     0.1000000000E+03
         0.2840000000E+08     0.1000000000E+03
         0.2850000000E+08     0.1000000000E+03
         0.2860000000E+08     0.1000000000E+03
         0.2870000000E+08     0.1000000000E+03
         0.2880000000E+08     0.1000000000E+03
         0.2890000000E+08     0.1000000000E+03
         0.2890000000E+08     0.1000000000E+03
         0.2900000000E+08     0.1000000000E+03
         0.2910000000E+08     0.1000000000E+03
         0.2920000000E+08     0.1000000000E+03
         0.2930000000E+08     0.1000000000E+03
         0.2940000000E+08     0.1000000000E+03
         0.2950000000E+08     0.1000000000E+03
         0.2950000000E+08     0.1000000000E+03
         0.2960000000E+08     0.1000000000E+03
         0.2970000000E+08     0.1000000000E+03
         0.2980000000E+08     0.1000000000E+03
         0.2990000000E+08     0.1000000000E+03
         0.3000000000E+08     0.1000000000E+03
         0.3010000000E+08     0.1000000000E+03
         0.3020000000E+08     0.1000000000E+03
         0.3020000000E+08     0.1000000000E+03
         0.3030000000E+08     0.1000000000E+03
         0.3040000000E+08     0.1000000000E+03
         0.3050000000E+08     0.1000000000E+03
         0.3060000000E+08     0.1000000000E+03
         0.3070000000E+08     0.1000000000E+03
         0.3080000000E+08     0.1000000000E+03
         0.3080000000E+08     0.1000000000E+03
         0.3090000000E+08     0.1000000000E+03
         0.3100000000E+08     0.1000000000E+03
         0.3110000000E+08     0.1000000000E+03
         0.3120000000E+08     0.1000000000E+03
         0.3130000000E+08     0.1000000000E+03
         0.3140000000E+08     0.1000000000E+03
         0.3150000000E+08     0.1000000000E+03
         0.3150000000E+08     0.1000000000E+03
         0.3160000000E+08     0.1000000000E+03
         0.3170000000E+08     0.1000000000E+03
         0.3180000000E+08     0.1000000000E+03
         0.3190000000E+08     0.1000000000E+03
         0.3200000000E+08     0.1000000000E+03
         0.3210000000E+08     0.1000000000E+03
         0.3210000000E+08     0.1000000000E+03
         0.3220000000E+08     0.1000000000E+03
         0.3230000000E+08     0.1000000000E+03
         0.3240000000E+08     0.1000000000E+03
         0.3250000000E+08     0.1000000000E+03
         0.3260000000E+08     0.1000000000E+03
         0.3270000000E+08     0.1000000000E+03
         0.3270000000E+08     0.1000000000E+03
         0.3280000000E+08     0.1000000000E+03
         0.3290000000E+08     0.1000000000E+03
         0.3300000000E+08     0.1000000000E+03
         0.3310000000E+08     0.1000000000E+03
         0.3320000000E+08     0.1000000000E+03
         0.3330000000E+08     0.1000000000E+03
         0.3340000000E+08     0.1000000000E+03
         0.3340000000E+08     0.1000000000E+03
         0.3350000000E+08     0.1000000000E+03
         0.3360000000E+08     0.1000000000E+03
         0.3370000000E+08     0.1000000000E+03
         0.3380000000E+08     0.1000000000E+03
         0.3390000000E+08     0.1000000000E+03
         0.3400000000E+08     0.1000000000E+03
         0.3400000000E+08     0.1000000000E+03
         0.3410000000E+08     0.1000000000E+03
         0.3420000000E+08     0.1000000000E+03
         0.3430000000E+08     0.1000000000E+03
         0.3440000000E+08     0.1000000000E+03
         0.3450000000E+08     0.1000000000E+03
         0.3460000000E+08     0.1000000000E+03
         0.3460000000E+08     0.1000000000E+03
         0.3470000000E+08     0.1000000000E+03
         0.3480000000E+08     0.1000000000E+03
         0.3490000000E+08     0.1000000000E+03
         0.3500000000E+08     0.1000000000E+03
         0.3510000000E+08     0.1000000000E+03
         0.3520000000E+08     0.1000000000E+03
         0.3530000000E+08     0.1000000000E+03
         0.3530000000E+08     0.1000000000E+03
         0.3540000000E+08     0.1000000000E+03
         0.3550000000E+08     0.1000000000E+03
         0.3560000000E+08     0.1000000000E+03
         0.3570000000E+08     0.1000000000E+03
         0.3580000000E+08     0.1000000000E+03
         0.3590000000E+08     0.1000000000E+03
         0.3590000000E+08     0.1000000000E+03
         0.3600000000E+08     0.1000000000E+03
         0.3610000000E+08     0.1000000000E+03
         0.3620000000E+08     0.1000000000E+03
         0.3630000000E+08     0.1000000000E+03
         0.3640000000E+08     0.1000000000E+03
         0.3650000000E+08     0.1000000000E+03
         0.3650000000E+08     0.1000000000E+03
         0.3660000000E+08     0.1000000000E+03
         0.3670000000E+08     0.1000000000E+03
         0.3680000000E+08     0.1000000000E+03
         0.3690000000E+08     0.1000000000E+03
         0.3700000000E+08     0.1000000000E+03
         0.3710000000E+08     0.1000000000E+03
         0.3720000000E+08     0.1000000000E+03
         0.3720000000E+08     0.1000000000E+03
         0.3730000000E+08     0.1000000000E+03
         0.3740000000E+08     0.1000000000E+03
         0.3750000000E+08     0.1000000000E+03
         0.3760000000E+08     0.1000000000E+03
         0.3770000000E+08     0.1000000000E+03
         0.3780000000E+08     0.1000000000E+03
         0.3780000000E+08     0.1000000000E+03
         0.3790000000E+08     0.1000000000E+03
         0.3800000000E+08     0.1000000000E+03
         0.3810000000E+08     0.1000000000E+03
         0.3820000000E+08     0.1000000000E+03
         0.3830000000E+08     0.1000000000E+03
         0.3840000000E+08     0.1000000000E+03
         0.3840000000E+08     0.1000000000E+03
         0.3850000000E+08     0.1000000000E+03
         0.3860000000E+08     0.1000000000E+03
         0.3870000000E+08     0.1000000000E+03
         0.3880000000E+08     0.1000000000E+03
         0.3890000000E+08     0.1000000000E+03
         0.3900000000E+08     0.1000000000E+03
         0.3910000000E+08     0.1000000000E+03
         0.3910000000E+08     0.1000000000E+03
         0.3920000000E+08     0.1000000000E+03
         0.3930000000E+08     0.1000000000E+03
         0.3940000000E+08     0.1000000000E+03
         0.3950000000E+08     0.1000000000E+03
         0.3960000000E+08     0.1000000000E+03
         0.3970000000E+08     0.1000000000E+03
         0.3970000000E+08     0.1000000000E+03
         0.3980000000E+08     0.1000000000E+03
         0.3990000000E+08     0.1000000000E+03
         0.4000000000E+08     0.1000000000E+03
         0.4010000000E+08     0.1000000000E+03
         0.4020000000E+08     0.1000000000E+03
         0.4030000000E+08     0.1000000000E+03
         0.4030000000E+08     0.1000000000E+03
         0.4040000000E+08     0.1000000000E+03
         0.4050000000E+08     0.1000000000E+03
         0.4060000000E+08     0.1000000000E+03
         0.4070000000E+08     0.1000000000E+03
         0.4080000000E+08     0.1000000000E+03
         0.4090000000E+08     0.1000000000E+03
         0.4100000000E+08     0.1000000000E+03
         0.4100000000E+08     0.1000000000E+03
         0.4110000000E+08     0.1000000000E+03
         0.4120000000E+08     0.1000000000E+03
         0.4130000000E+08     0.1000000000E+03
         0.4140000000E+08     0.1000000000E+03
         0.4150000000E+08     0.1000000000E+03
         0.4160000000E+08     0.1000000000E+03
         0.4160000000E+08     0.1000000000E+03
         0.4170000000E+08     0.1000000000E+03
         0.4180000000E+08     0.1000000000E+03
         0.4190000000E+08     0.1000000000E+03
         0.4200000000E+08     0.1000000000E+03
         0.4210000000E+08     0.1000000000E+03
         0.4220000000E+08     0.1000000000E+03
         0.4230000000E+08     0.1000000000E+03
         0.4230000000E+08     0.1000000000E+03
         0.4240000000E+08     0.1000000000E+03
         0.4250000000E+08     0.1000000000E+03
         0.4260000000E+08     0.1000000000E+03
         0.4270000000E+08     0.1000000000E+03
         0.4280000000E+08     0.1000000000E+03
         0.4290000000E+08     0.1000000000E+03
         0.4290000000E+08     0.1000000000E+03
         0.4300000000E+08     0.1000000000E+03
         0.4310000000E+08     0.1000000000E+03
         0.4320000000E+08     0.1000000000E+03
         0.4330000000E+08     0.1000000000E+03
         0.4340000000E+08     0.1000000000E+03
         0.4350000000E+08     0.1000000000E+03
         0.4350000000E+08     0.1000000000E+03
         0.4360000000E+08     0.1000000000E+03
         0.4370000000E+08     0.1000000000E+03
         0.4380000000E+08     0.1000000000E+03
         0.4390000000E+08     0.1000000000E+03
         0.4400000000E+08     0.1000000000E+03
         0.4410000000E+08     0.1000000000E+03
         0.4420000000E+08     0.1000000000E+03
         0.4420000000E+08     0.1000000000E+03
         0.4430000000E+08     0.1000000000E+03
         0.4440000000E+08     0.1000000000E+03
         0.4450000000E+08     0.1000000000E+03
         0.4460000000E+08     0.1000000000E+03
         0.4470000000E+08     0.1000000000E+03
         0.4480000000E+08     0.1000000000E+03
         0.4480000000E+08     0.1000000000E+03
         0.4490000000E+08     0.1000000000E+03
         0.4500000000E+08     0.1000000000E+03
         0.4510000000E+08     0.1000000000E+03
         0.4520000000E+08     0.1000000000E+03
         0.4530000000E+08     0.1000000000E+03
         0.4540000000E+08     0.1000000000E+03
         0.4540000000E+08     0.1000000000E+03
         0.4550000000E+08     0.1000000000E+03
         0.4560000000E+08     0.1000000000E+03
         0.4570000000E+08     0.1000000000E+03
         0.4580000000E+08     0.1000000000E+03
         0.4590000000E+08     0.1000000000E+03
         0.4600000000E+08     0.1000000000E+03
         0.4610000000E+08     0.1000000000E+03
         0.4610000000E+08     0.1000000000E+03
         0.4620000000E+08     0.1000000000E+03
         0.4630000000E+08     0.1000000000E+03
         0.4640000000E+08     0.1000000000E+03
         0.4650000000E+08     0.1000000000E+03
         0.4660000000E+08     0.1000000000E+03
         0.4670000000E+08     0.1000000000E+03
         0.4670000000E+08     0.1000000000E+03
         0.4680000000E+08     0.1000000000E+03
         0.4690000000E+08     0.1000000000E+03
         0.4700000000E+08     0.1000000000E+03
         0.4710000000E+08     0.1000000000E+03
         0.4720000000E+08     0.1000000000E+03
         0.4730000000E+08     0.1000000000E+03
         0.4730000000E+08     0.1000000000E+03
         0.4740000000E+08     0.1000000000E+03
         0.4750000000E+08     0.1000000000E+03
         0.4760000000E+08     0.1000000000E+03
         0.4770000000E+08     0.1000000000E+03
         0.4780000000E+08     0.1000000000E+03
         0.4790000000E+08     0.1000000000E+03
         0.4800000000E+08     0.1000000000E+03
         0.4800000000E+08     0.1000000000E+03
         0.4810000000E+08     0.1000000000E+03
         0.4820000000E+08     0.1000000000E+03
         0.4830000000E+08     0.1000000000E+03
         0.4840000000E+08     0.1000000000E+03
         0.4850000000E+08     0.1000000000E+03
         0.4860000000E+08     0.1000000000E+03
         0.4860000000E+08     0.1000000000E+03
         0.4870000000E+08     0.1000000000E+03
         0.4880000000E+08     0.1000000000E+03
         0.4890000000E+08     0.1000000000E+03
         0.4900000000E+08     0.1000000000E+03
         0.4910000000E+08     0.1000000000E+03
         0.4920000000E+08     0.1000000000E+03
         0.4920000000E+08     0.1000000000E+03
         0.4930000000E+08     0.1000000000E+03
         0.4940000000E+08     0.1000000000E+03
         0.4950000000E+08     0.1000000000E+03
         0.4960000000E+08     0.1000000000E+03
         0.4970000000E+08     0.1000000000E+03
         0.4980000000E+08     0.1000000000E+03
         0.4990000000E+08     0.1000000000E+03
         0.4990000000E+08     0.1000000000E+03
         0.5000000000E+08     0.1000000000E+03
         0.5010000000E+08     0.1000000000E+03
         0.5020000000E+08     0.1000000000E+03
         0.5030000000E+08     0.1000000000E+03
         0.5040000000E+08     0.1000000000E+03
         0.5050000000E+08     0.1000000000E+03
         0.5050000000E+08     0.1000000000E+03
         0.5060000000E+08     0.1000000000E+03
         0.5070000000E+08     0.1000000000E+03
         0.5080000000E+08     0.1000000000E+03
         0.5090000000E+08     0.1000000000E+03
         0.5100000000E+08     0.1000000000E+03
         0.5110000000E+08     0.1000000000E+03
         0.5110000000E+08     0.1000000000E+03
         0.5120000000E+08     0.1000000000E+03
         0.5130000000E+08     0.1000000000E+03
         0.5140000000E+08     0.1000000000E+03
         0.5150000000E+08     0.1000000000E+03
         0.5160000000E+08     0.1000000000E+03
         0.5170000000E+08     0.1000000000E+03
         0.5180000000E+08     0.1000000000E+03
         0.5180000000E+08     0.1000000000E+03
         0.5190000000E+08     0.1000000000E+03
         0.5200000000E+08     0.1000000000E+03
         0.5210000000E+08     0.1000000000E+03
         0.5220000000E+08     0.1000000000E+03
         0.5230000000E+08     0.1000000000E+03
         0.5240000000E+08     0.1000000000E+03
         0.5240000000E+08     0.1000000000E+03
         0.5250000000E+08     0.1000000000E+03
         0.5260000000E+08     0.1000000000E+03
         0.5270000000E+08     0.1000000000E+03
         0.5280000000E+08     0.1000000000E+03
         0.5290000000E+08     0.1000000000E+03
         0.5300000000E+08     0.1000000000E+03
         0.5310000000E+08     0.1000000000E+03
         0.5310000000E+08     0.1000000000E+03
         0.5320000000E+08     0.1000000000E+03
         0.5330000000E+08     0.1000000000E+03
         0.5340000000E+08     0.1000000000E+03
         0.5350000000E+08     0.1000000000E+03
         0.5360000000E+08     0.1000000000E+03
         0.5370000000E+08     0.1000000000E+03
         0.5370000000E+08     0.1000000000E+03
         0.5380000000E+08     0.1000000000E+03
         0.5390000000E+08     0.1000000000E+03
         0.5400000000E+08     0.1000000000E+03
         0.5410000000E+08     0.1000000000E+03
         0.5420000000E+08     0.1000000000E+03
         0.5430000000E+08     0.1000000000E+03
         0.5430000000E+08     0.1000000000E+03
         0.5440000000E+08     0.1000000000E+03
         0.5450000000E+08     0.1000000000E+03
         0.5460000000E+08     0.1000000000E+03
         0.5470000000E+08     0.1000000000E+03
         0.5480000000E+08     0.1000000000E+03
         0.5490000000E+08     0.1000000000E+03
         0.5500000000E+08     0.1000000000E+03
         0.5500000000E+08     0.1000000000E+03
         0.5510000000E+08     0.1000000000E+03
         0.5520000000E+08     0.1000000000E+03
         0.5530000000E+08     0.1000000000E+03
         0.5540000000E+08     0.1000000000E+03
         0.5550000000E+08     0.1000000000E+03
         0.5560000000E+08     0.1000000000E+03
         0.5560000000E+08     0.1000000000E+03
         0.5570000000E+08     0.1000000000E+03
         0.5580000000E+08     0.1000000000E+03
         0.5590000000E+08     0.1000000000E+03
         0.5600000000E+08     0.1000000000E+03
         0.5610000000E+08     0.1000000000E+03
         0.5620000000E+08     0.1000000000E+03
         0.5620000000E+08     0.1000000000E+03
         0.5630000000E+08     0.1000000000E+03
         0.5640000000E+08     0.1000000000E+03
         0.5650000000E+08     0.1000000000E+03
         0.5660000000E+08     0.1000000000E+03
         0.5670000000E+08     0.1000000000E+03
         0.5680000000E+08     0.1000000000E+03
         0.5690000000E+08     0.1000000000E+03
         0.5690000000E+08     0.1000000000E+03
         0.5700000000E+08     0.1000000000E+03
         0.5710000000E+08     0.1000000000E+03
         0.5720000000E+08     0.1000000000E+03
         0.5730000000E+08     0.1000000000E+03
         0.5740000000E+08     0.1000000000E+03
         0.5750000000E+08     0.1000000000E+03
         0.5750000000E+08     0.1000000000E+03
         0.5760000000E+08     0.1000000000E+03
         0.5770000000E+08     0.1000000000E+03
         0.5780000000E+08     0.1000000000E+03
         0.5790000000E+08     0.1000000000E+03
         0.5800000000E+08     0.1000000000E+03
         0.5810000000E+08     0.1000000000E+03
         0.5810000000E+08     0.1000000000E+03
         0.5820000000E+08     0.1000000000E+03
         0.5830000000E+08     0.1000000000E+03
         0.5840000000E+08     0.1000000000E+03
         0.5850000000E+08     0.1000000000E+03
         0.5860000000E+08     0.1000000000E+03
         0.5870000000E+08     0.1000000000E+03
         0.5880000000E+08     0.1000000000E+03
         0.5880000000E+08     0.1000000000E+03
         0.5890000000E+08     0.1000000000E+03
         0.5900000000E+08     0.1000000000E+03
         0.5910000000E+08     0.1000000000E+03
         0.5920000000E+08     0.1000000000E+03
         0.5930000000E+08     0.1000000000E+03
         0.5940000000E+08     0.1000000000E+03
         0.5940000000E+08     0.1000000000E+03
         0.5950000000E+08     0.1000000000E+03
         0.5960000000E+08     0.1000000000E+03
         0.5970000000E+08     0.1000000000E+03
         0.5980000000E+08     0.1000000000E+03
         0.5990000000E+08     0.1000000000E+03
         0.6000000000E+08     0.1000000000E+03
         0.6000000000E+08     0.1000000000E+03
         0.6010000000E+08     0.1000000000E+03
         0.6020000000E+08     0.1000000000E+03
         0.6030000000E+08     0.1000000000E+03
         0.6040000000E+08     0.1000000000E+03
         0.6050000000E+08     0.1000000000E+03
         0.6060000000E+08     0.1000000000E+03
         0.6070000000E+08     0.1000000000E+03
         0.6070000000E+08     0.1000000000E+03
         0.6080000000E+08     0.1000000000E+03
         0.6090000000E+08     0.1000000000E+03
         0.6100000000E+08     0.1000000000E+03
         0.6110000000E+08     0.1000000000E+03
         0.6120000000E+08     0.1000000000E+03
         0.6130000000E+08     0.1000000000E+03
         0.6130000000E+08     0.1000000000E+03
         0.6140000000E+08     0.1000000000E+03
         0.6150000000E+08     0.1000000000E+03
         0.6160000000E+08     0.1000000000E+03
         0.6170000000E+08     0.1000000000E+03
         0.6180000000E+08     0.1000000000E+03
         0.6190000000E+08     0.1000000000E+03
         0.6190000000E+08     0.1000000000E+03
         0.6200000000E+08     0.1000000000E+03
         0.6210000000E+08     0.1000000000E+03
         0.6220000000E+08     0.1000000000E+03
         0.6230000000E+08     0.1000000000E+03
         0.6240000000E+08     0.1000000000E+03
         0.6250000000E+08     0.1000000000E+03
         0.6260000000E+08     0.1000000000E+03
         0.6260000000E+08     0.1000000000E+03
         0.6270000000E+08     0.1000000000E+03
         0.6280000000E+08     0.1000000000E+03
         0.6290000000E+08     0.1000000000E+03
         0.6300000000E+08     0.1000000000E+03
         0.6310000000E+08     0.1000000000E+03
         0.6320000000E+08     0.1000000000E+03
         0.6320000000E+08     0.1000000000E+03
         0.6330000000E+08     0.1000000000E+03
         0.6340000000E+08     0.1000000000E+03
         0.6350000000E+08     0.1000000000E+03
         0.6360000000E+08     0.1000000000E+03
         0.6370000000E+08     0.1000000000E+03
         0.6380000000E+08     0.1000000000E+03
         0.6390000000E+08     0.1000000000E+03
         0.6390000000E+08     0.1000000000E+03
         0.6400000000E+08     0.1000000000E+03
         0.6410000000E+08     0.1000000000E+03
         0.6420000000E+08     0.1000000000E+03
         0.6430000000E+08     0.1000000000E+03
         0.6440000000E+08     0.1000000000E+03
         0.6450000000E+08     0.1000000000E+03
         0.6450000000E+08     0.1000000000E+03
         0.6460000000E+08     0.1000000000E+03
         0.6470000000E+08     0.1000000000E+03
         0.6480000000E+08     0.1000000000E+03
         0.6490000000E+08     0.1000000000E+03
         0.6500000000E+08     0.1000000000E+03
         0.6510000000E+08     0.1000000000E+03
         0.6510000000E+08     0.1000000000E+03
         0.6520000000E+08     0.1000000000E+03
         0.6530000000E+08     0.1000000000E+03
         0.6540000000E+08     0.1000000000E+03
         0.6550000000E+08     0.1000000000E+03
         0.6560000000E+08     0.1000000000E+03
         0.6570000000E+08     0.1000000000E+03
         0.6580000000E+08     0.1000000000E+03
         0.6590000000E+08     0.1000000000E+03
         0.6600000000E+08     0.1000000000E+03
         0.6610000000E+08     0.1000000000E+03
         0.6610000000E+08     0.1000000000E+03
         0.6620000000E+08     0.1000000000E+03
         0.6630000000E+08     0.1000000000E+03
         0.6640000000E+08     0.1000000000E+03
         0.6650000000E+08     0.1000000000E+03
         0.6660000000E+08     0.1000000000E+03
         0.6670000000E+08     0.1000000000E+03
         0.6670000000E+08     0.1000000000E+03
         0.6680000000E+08     0.1000000000E+03
         0.6690000000E+08     0.1000000000E+03
         0.6700000000E+08     0.1000000000E+03
         0.6710000000E+08     0.1000000000E+03
         0.6720000000E+08     0.1000000000E+03
         0.6730000000E+08     0.1000000000E+03
         0.6730000000E+08     0.1000000000E+03
         0.6740000000E+08     0.1000000000E+03
         0.6750000000E+08     0.1000000000E+03
         0.6760000000E+08     0.1000000000E+03
         0.6770000000E+08     0.1000000000E+03
         0.6780000000E+08     0.1000000000E+03
         0.6790000000E+08     0.1000000000E+03
         0.6800000000E+08     0.1000000000E+03
         0.6810000000E+08     0.1000000000E+03
         0.6820000000E+08     0.1000000000E+03
         0.6830000000E+08     0.1000000000E+03
         0.6830000000E+08     0.1000000000E+03
         0.6840000000E+08     0.1000000000E+03
         0.6850000000E+08     0.1000000000E+03
         0.6860000000E+08     0.1000000000E+03
         0.6870000000E+08     0.1000000000E+03
         0.6880000000E+08     0.1000000000E+03
         0.6890000000E+08     0.1000000000E+03
         0.6890000000E+08     0.1000000000E+03
         0.6900000000E+08     0.1000000000E+03
         0.6910000000E+08     0.1000000000E+03
         0.6920000000E+08     0.1000000000E+03
         0.6930000000E+08     0.1000000000E+03
         0.6940000000E+08     0.1000000000E+03
         0.6950000000E+08     0.1000000000E+03
         0.6950000000E+08     0.1000000000E+03
         0.6960000000E+08     0.1000000000E+03
         0.6970000000E+08     0.1000000000E+03
         0.6980000000E+08     0.1000000000E+03
         0.6990000000E+08     0.1000000000E+03
         0.7000000000E+08     0.1000000000E+03
         0.7010000000E+08     0.1000000000E+03
         0.7020000000E+08     0.1000000000E+03
         0.7030000000E+08     0.1000000000E+03
         0.7040000000E+08     0.1000000000E+03
         0.7050000000E+08     0.1000000000E+03
         0.7050000000E+08     0.1000000000E+03
         0.7060000000E+08     0.1000000000E+03
         0.7070000000E+08     0.1000000000E+03
         0.7080000000E+08     0.1000000000E+03
         0.7090000000E+08     0.1000000000E+03
         0.7100000000E+08     0.1000000000E+03
         0.7110000000E+08     0.1000000000E+03
         0.7110000000E+08     0.1000000000E+03
         0.7120000000E+08     0.1000000000E+03
         0.7130000000E+08     0.1000000000E+03
         0.7140000000E+08     0.1000000000E+03
         0.7150000000E+08     0.1000000000E+03
         0.7160000000E+08     0.1000000000E+03
         0.7170000000E+08     0.1000000000E+03
         0.7170000000E+08     0.1000000000E+03
         0.7180000000E+08     0.1000000000E+03
         0.7190000000E+08     0.1000000000E+03
         0.7200000000E+08     0.1000000000E+03
         0.7210000000E+08     0.1000000000E+03
         0.7220000000E+08     0.1000000000E+03
         0.7230000000E+08     0.1000000000E+03
         0.7240000000E+08     0.1000000000E+03
         0.7250000000E+08     0.1000000000E+03
         0.7260000000E+08     0.1000000000E+03
         0.7270000000E+08     0.1000000000E+03
         0.7270000000E+08     0.1000000000E+03
         0.7280000000E+08     0.1000000000E+03
         0.7290000000E+08     0.1000000000E+03
         0.7300000000E+08     0.1000000000E+03
         0.7310000000E+08     0.1000000000E+03
         0.7320000000E+08     0.1000000000E+03
         0.7330000000E+08     0.1000000000E+03
         0.7330000000E+08     0.1000000000E+03
         0.7340000000E+08     0.1000000000E+03
         0.7350000000E+08     0.1000000000E+03
         0.7360000000E+08     0.1000000000E+03
         0.7370000000E+08     0.1000000000E+03
         0.7380000000E+08     0.1000000000E+03
         0.7390000000E+08     0.1000000000E+03
         0.7390000000E+08     0.1000000000E+03
         0.7400000000E+08     0.1000000000E+03
         0.7410000000E+08     0.1000000000E+03
         0.7420000000E+08     0.1000000000E+03
         0.7430000000E+08     0.1000000000E+03
         0.7440000000E+08     0.1000000000E+03
         0.7450000000E+08     0.1000000000E+03
         0.7460000000E+08     0.1000000000E+03
         0.7470000000E+08     0.1000000000E+03
         0.7480000000E+08     0.1000000000E+03
         0.7490000000E+08     0.1000000000E+03
         0.7490000000E+08     0.1000000000E+03
         0.7500000000E+08     0.1000000000E+03
         0.7510000000E+08     0.1000000000E+03
         0.7520000000E+08     0.1000000000E+03
         0.7530000000E+08     0.1000000000E+03
         0.7540000000E+08     0.1000000000E+03
         0.7550000000E+08     0.1000000000E+03
         0.7550000000E+08     0.1000000000E+03
         0.7560000000E+08     0.1000000000E+03
         0.7570000000E+08     0.1000000000E+03
         0.7580000000E+08     0.1000000000E+03
         0.7590000000E+08     0.1000000000E+03
         0.7600000000E+08     0.1000000000E+03
         0.7610000000E+08     0.1000000000E+03
         0.7610000000E+08     0.1000000000E+03
         0.7620000000E+08     0.1000000000E+03
         0.7630000000E+08     0.1000000000E+03
         0.7640000000E+08     0.1000000000E+03
         0.7650000000E+08     0.1000000000E+03
         0.7660000000E+08     0.1000000000E+03
         0.7670000000E+08     0.1000000000E+03
         0.7680000000E+08     0.1000000000E+03
         0.7690000000E+08     0.1000000000E+03
         0.7700000000E+08     0.1000000000E+03
         0.7710000000E+08     0.1000000000E+03
         0.7710000000E+08     0.1000000000E+03
         0.7720000000E+08     0.1000000000E+03
         0.7730000000E+08     0.1000000000E+03
         0.7740000000E+08     0.1000000000E+03
         0.7750000000E+08     0.1000000000E+03
         0.7760000000E+08     0.1000000000E+03
         0.7770000000E+08     0.1000000000E+03
         0.7770000000E+08     0.1000000000E+03
         0.7780000000E+08     0.1000000000E+03
         0.7790000000E+08     0.1000000000E+03
         0.7800000000E+08     0.1000000000E+03
         0.7810000000E+08     0.1000000000E+03
         0.7820000000E+08     0.1000000000E+03
         0.7830000000E+08     0.1000000000E+03
         0.7830000000E+08     0.1000000000E+03
         0.7840000000E+08     0.1000000000E+03
         0.7850000000E+08     0.1000000000E+03
         0.7860000000E+08     0.1000000000E+03
         0.7870000000E+08     0.1000000000E+03
         0.7880000000E+08     0.1000000000E+03
         0.7890000000E+08     0.1000000000E+03
         0.7900000000E+08     0.1000000000E+03
         0.7910000000E+08     0.1000000000E+03
         0.7920000000E+08     0.1000000000E+03
         0.7930000000E+08     0.1000000000E+03
         0.7930000000E+08     0.1000000000E+03
         0.7940000000E+08     0.1000000000E+03
         0.7950000000E+08     0.1000000000E+03
         0.7960000000E+08     0.1000000000E+03
         0.7970000000E+08     0.1000000000E+03
         0.7980000000E+08     0.1000000000E+03
         0.7990000000E+08     0.1000000000E+03
         0.7990000000E+08     0.1000000000E+03
         0.8000000000E+08     0.1000000000E+03
         0.8010000000E+08     0.1000000000E+03
         0.8020000000E+08     0.1000000000E+03
         0.8030000000E+08     0.1000000000E+03
         0.8040000000E+08     0.1000000000E+03
         0.8050000000E+08     0.1000000000E+03
         0.8050000000E+08     0.1000000000E+03
         0.8060000000E+08     0.1000000000E+03
         0.8070000000E+08     0.1000000000E+03
         0.8080000000E+08     0.1000000000E+03
         0.8090000000E+08     0.1000000000E+03
         0.8100000000E+08     0.1000000000E+03
         0.8110000000E+08     0.1000000000E+03
         0.8120000000E+08     0.1000000000E+03
         0.8130000000E+08     0.1000000000E+03
         0.8140000000E+08     0.1000000000E+03
         0.8150000000E+08     0.1000000000E+03
         0.8150000000E+08     0.1000000000E+03
         0.8160000000E+08     0.1000000000E+03
         0.8170000000E+08     0.1000000000E+03
         0.8180000000E+08     0.1000000000E+03
         0.8190000000E+08     0.1000000000E+03
         0.8200000000E+08     0.1000000000E+03
         0.8210000000E+08     0.1000000000E+03
         0.8210000000E+08     0.1000000000E+03
         0.8220000000E+08     0.1000000000E+03
         0.8230000000E+08     0.1000000000E+03
         0.8240000000E+08     0.1000000000E+03
         0.8250000000E+08     0.1000000000E+03
         0.8260000000E+08     0.1000000000E+03
         0.8270000000E+08     0.1000000000E+03
         0.8270000000E+08     0.1000000000E+03
         0.8280000000E+08     0.1000000000E+03
         0.8290000000E+08     0.1000000000E+03
         0.8300000000E+08     0.1000000000E+03
         0.8310000000E+08     0.1000000000E+03
         0.8320000000E+08     0.1000000000E+03
         0.8330000000E+08     0.1000000000E+03
         0.8340000000E+08     0.1000000000E+03
         0.8350000000E+08     0.1000000000E+03
         0.8360000000E+08     0.1000000000E+03
         0.8370000000E+08     0.1000000000E+03
         0.8370000000E+08     0.1000000000E+03
         0.8380000000E+08     0.1000000000E+03
         0.8390000000E+08     0.1000000000E+03
         0.8400000000E+08     0.1000000000E+03
         0.8410000000E+08     0.1000000000E+03
         0.8420000000E+08     0.1000000000E+03
         0.8430000000E+08     0.1000000000E+03
         0.8430000000E+08     0.1000000000E+03
         0.8440000000E+08     0.1000000000E+03
         0.8450000000E+08     0.1000000000E+03
         0.8460000000E+08     0.1000000000E+03
         0.8470000000E+08     0.1000000000E+03
         0.8480000000E+08     0.1000000000E+03
         0.8490000000E+08     0.1000000000E+03
         0.8490000000E+08     0.1000000000E+03
         0.8500000000E+08     0.1000000000E+03
         0.8510000000E+08     0.1000000000E+03
         0.8520000000E+08     0.1000000000E+03
         0.8530000000E+08     0.1000000000E+03
         0.8540000000E+08     0.1000000000E+03
         0.8550000000E+08     0.1000000000E+03
         0.8560000000E+08     0.1000000000E+03
         0.8570000000E+08     0.1000000000E+03
         0.8580000000E+08     0.1000000000E+03
         0.8590000000E+08     0.1000000000E+03
         0.8590000000E+08     0.1000000000E+03
         0.8600000000E+08     0.1000000000E+03
         0.8610000000E+08     0.1000000000E+03
         0.8620000000E+08     0.1000000000E+03
         0.8630000000E+08     0.1000000000E+03
         0.8640000000E+08     0.1000000000E+03
         0.8650000000E+08     0.1000000000E+03
         0.8650000000E+08     0.1000000000E+03
         0.8660000000E+08     0.1000000000E+03
         0.8670000000E+08     0.1000000000E+03
         0.8680000000E+08     0.1000000000E+03
         0.8690000000E+08     0.1000000000E+03
         0.8700000000E+08     0.1000000000E+03
         0.8710000000E+08     0.1000000000E+03
         0.8710000000E+08     0.1000000000E+03
         0.8720000000E+08     0.1000000000E+03
         0.8730000000E+08     0.1000000000E+03
         0.8740000000E+08     0.1000000000E+03
         0.8750000000E+08     0.1000000000E+03
         0.8760000000E+08     0.1000000000E+03
         0.8770000000E+08     0.1000000000E+03
         0.8780000000E+08     0.1000000000E+03
         0.8790000000E+08     0.1000000000E+03
         0.8800000000E+08     0.1000000000E+03
         0.8810000000E+08     0.1000000000E+03
         0.8810000000E+08     0.1000000000E+03
         0.8820000000E+08     0.1000000000E+03
         0.8830000000E+08     0.1000000000E+03
         0.8840000000E+08     0.1000000000E+03
         0.8850000000E+08     0.1000000000E+03
         0.8860000000E+08     0.1000000000E+03
         0.8870000000E+08     0.1000000000E+03
         0.8870000000E+08     0.1000000000E+03
         0.8880000000E+08     0.1000000000E+03
         0.8890000000E+08     0.1000000000E+03
         0.8900000000E+08     0.1000000000E+03
         0.8910000000E+08     0.1000000000E+03
         0.8920000000E+08     0.1000000000E+03
         0.8930000000E+08     0.1000000000E+03
         0.8930000000E+08     0.1000000000E+03
         0.8940000000E+08     0.1000000000E+03
         0.8950000000E+08     0.1000000000E+03
         0.8960000000E+08     0.1000000000E+03
         0.8970000000E+08     0.1000000000E+03
         0.8980000000E+08     0.1000000000E+03
         0.8990000000E+08     0.1000000000E+03
         0.9000000000E+08     0.1000000000E+03
         0.9010000000E+08     0.1000000000E+03
         0.9020000000E+08     0.1000000000E+03
         0.9030000000E+08     0.1000000000E+03
         0.9030000000E+08     0.1000000000E+03
         0.9040000000E+08     0.1000000000E+03
         0.9050000000E+08     0.1000000000E+03
         0.9060000000E+08     0.1000000000E+03
         0.9070000000E+08     0.1000000000E+03
         0.9080000000E+08     0.1000000000E+03
         0.9090000000E+08     0.1000000000E+03
         0.9090000000E+08     0.1000000000E+03
         0.9100000000E+08     0.1000000000E+03
         0.9110000000E+08     0.1000000000E+03
         0.9120000000E+08     0.1000000000E+03
         0.9130000000E+08     0.1000000000E+03
         0.9140000000E+08     0.1000000000E+03
         0.9150000000E+08     0.1000000000E+03
         0.9150000000E+08     0.1000000000E+03
         0.9160000000E+08     0.1000000000E+03
         0.9170000000E+08     0.1000000000E+03
         0.9180000000E+08     0.1000000000E+03
         0.9190000000E+08     0.1000000000E+03
         0.9200000000E+08     0.1000000000E+03
         0.9210000000E+08     0.1000000000E+03
         0.9220000000E+08     0.1000000000E+03
         0.9230000000E+08     0.1000000000E+03
         0.9240000000E+08     0.1000000000E+03
         0.9250000000E+08     0.1000000000E+03
         0.9250000000E+08     0.1000000000E+03
         0.9260000000E+08     0.1000000000E+03
         0.9270000000E+08     0.1000000000E+03
         0.9280000000E+08     0.1000000000E+03
         0.9290000000E+08     0.1000000000E+03
         0.9300000000E+08     0.1000000000E+03
         0.9310000000E+08     0.1000000000E+03
         0.9310000000E+08     0.1000000000E+03
         0.9320000000E+08     0.1000000000E+03
         0.9330000000E+08     0.1000000000E+03
         0.9340000000E+08     0.1000000000E+03
         0.9350000000E+08     0.1000000000E+03
         0.9360000000E+08     0.1000000000E+03
         0.9370000000E+08     0.1000000000E+03
         0.9370000000E+08     0.1000000000E+03
         0.9380000000E+08     0.1000000000E+03
         0.9390000000E+08     0.1000000000E+03
         0.9400000000E+08     0.1000000000E+03
         0.9410000000E+08     0.1000000000E+03
         0.9420000000E+08     0.1000000000E+03
         0.9430000000E+08     0.1000000000E+03
         0.9440000000E+08     0.1000000000E+03
         0.9450000000E+08     0.1000000000E+03
         0.9460000000E+08     0.1000000000E+03
         0.9470000000E+08     0.1000000000E+03
         0.9470000000E+08     0.1000000000E+03
         0.9480000000E+08     0.1000000000E+03
         0.9490000000E+08     0.1000000000E+03
         0.9500000000E+08     0.1000000000E+03
         0.9510000000E+08     0.1000000000E+03
         0.9520000000E+08     0.1000000000E+03
         0.9530000000E+08     0.1000000000E+03
         0.9530000000E+08     0.1000000000E+03
         0.9540000000E+08     0.1000000000E+03
         0.9550000000E+08     0.1000000000E+03
         0.9560000000E+08     0.1000000000E+03
         0.9570000000E+08     0.1000000000E+03
         0.9580000000E+08     0.1000000000E+03
         0.9590000000E+08     0.1000000000E+03
         0.9590000000E+08     0.1000000000E+03
         0.9600000000E+08     0.1000000000E+03
         0.9610000000E+08     0.1000000000E+03
         0.9620000000E+08     0.1000000000E+03
         0.9630000000E+08     0.1000000000E+03
         0.9640000000E+08     0.1000000000E+03
         0.9650000000E+08     0.1000000000E+03
         0.9660000000E+08     0.1000000000E+03
         0.9670000000E+08     0.1000000000E+03
         0.9680000000E+08     0.1000000000E+03
         0.9690000000E+08     0.1000000000E+03
         0.9690000000E+08     0.1000000000E+03
         0.9700000000E+08     0.1000000000E+03
         0.9710000000E+08     0.1000000000E+03
         0.9720000000E+08     0.1000000000E+03
         0.9730000000E+08     0.1000000000E+03
         0.9740000000E+08     0.1000000000E+03
         0.9750000000E+08     0.1000000000E+03
         0.9750000000E+08     0.1000000000E+03
         0.9760000000E+08     0.1000000000E+03
         0.9770000000E+08     0.1000000000E+03
         0.9780000000E+08     0.1000000000E+03
         0.9790000000E+08     0.1000000000E+03
         0.9800000000E+08     0.1000000000E+03
         0.9810000000E+08     0.1000000000E+03
         0.9810000000E+08     0.1000000000E+03
         0.9820000000E+08     0.1000000000E+03
         0.9830000000E+08     0.1000000000E+03
         0.9840000000E+08     0.1000000000E+03
         0.9850000000E+08     0.1000000000E+03
         0.9860000000E+08     0.1000000000E+03
         0.9870000000E+08     0.1000000000E+03
         0.9880000000E+08     0.1000000000E+03
         0.9890000000E+08     0.1000000000E+03
         0.9900000000E+08     0.1000000000E+03
         0.9910000000E+08     0.1000000000E+03
         0.9910000000E+08     0.1000000000E+03
         0.9920000000E+08     0.1000000000E+03
         0.9930000000E+08     0.1000000000E+03
         0.9940000000E+08     0.1000000000E+03
         0.9950000000E+08     0.1000000000E+03
         0.9960000000E+08     0.1000000000E+03
         0.9970000000E+08     0.1000000000E+03
         0.9970000000E+08     0.1000000000E+03
         0.9980000000E+08     0.1000000000E+03
         0.9990000000E+08     0.1000000000E+03
         0.1000000000E+09     0.1000000000E+03
         0.1001000000E+09     0.1000000000E+03
         0.1002000000E+09     0.1000000000E+03
         0.1003000000E+09     0.1000000000E+03
         0.1003000000E+09     0.1000000000E+03
         0.1004000000E+09     0.1000000000E+03
         0.1005000000E+09     0.1000000000E+03
         0.1006000000E+09     0.1000000000E+03
         0.1007000000E+09     0.1000000000E+03
         0.1008000000E+09     0.1000000000E+03
         0.1009000000E+09     0.1000000000E+03
         0.1010000000E+09     0.1000000000E+03
         0.1011000000E+09     0.1000000000E+03
         0.1012000000E+09     0.1000000000E+03
         0.1013000000E+09     0.1000000000E+03
         0.1013000000E+09     0.1000000000E+03
         0.1014000000E+09     0.1000000000E+03
         0.1015000000E+09     0.1000000000E+03
         0.1016000000E+09     0.1000000000E+03
         0.1017000000E+09     0.1000000000E+03
         0.1018000000E+09     0.1000000000E+03
         0.1019000000E+09     0.1000000000E+03
         0.1019000000E+09     0.1000000000E+03
         0.1020000000E+09     0.1000000000E+03
         0.1021000000E+09     0.1000000000E+03
         0.1022000000E+09     0.1000000000E+03
         0.1023000000E+09     0.1000000000E+03
         0.1024000000E+09     0.1000000000E+03
         0.1025000000E+09     0.1000000000E+03
         0.1025000000E+09     0.1000000000E+03
         0.1026000000E+09     0.1000000000E+03
         0.1027000000E+09     0.1000000000E+03
         0.1028000000E+09     0.1000000000E+03
         0.1029000000E+09     0.1000000000E+03
         0.1030000000E+09     0.1000000000E+03
         0.1031000000E+09     0.1000000000E+03
         0.1032000000E+09     0.1000000000E+03
         0.1033000000E+09     0.1000000000E+03
         0.1034000000E+09     0.1000000000E+03
         0.1035000000E+09     0.1000000000E+03
         0.1035000000E+09     0.1000000000E+03
         0.1036000000E+09     0.1000000000E+03
         0.1037000000E+09     0.1000000000E+03
         0.1038000000E+09     0.1000000000E+03
         0.1039000000E+09     0.1000000000E+03
         0.1040000000E+09     0.1000000000E+03
         0.1041000000E+09     0.1000000000E+03
         0.1041000000E+09     0.1000000000E+03
         0.1042000000E+09     0.1000000000E+03
         0.1043000000E+09     0.1000000000E+03
         0.1044000000E+09     0.1000000000E+03
         0.1045000000E+09     0.1000000000E+03
         0.1046000000E+09     0.1000000000E+03
         0.1047000000E+09     0.1000000000E+03
         0.1047000000E+09     0.1000000000E+03
         0.1048000000E+09     0.1000000000E+03
         0.1049000000E+09     0.1000000000E+03
         0.1050000000E+09     0.1000000000E+03
         0.1051000000E+09     0.1000000000E+03
         0.1052000000E+09     0.1000000000E+03
         0.1053000000E+09     0.1000000000E+03
         0.1054000000E+09     0.1000000000E+03
         0.1055000000E+09     0.1000000000E+03
         0.1056000000E+09     0.1000000000E+03
         0.1057000000E+09     0.1000000000E+03
         0.1057000000E+09     0.1000000000E+03
         0.1058000000E+09     0.1000000000E+03
         0.1059000000E+09     0.1000000000E+03
         0.1060000000E+09     0.1000000000E+03
         0.1061000000E+09     0.1000000000E+03
         0.1062000000E+09     0.1000000000E+03
         0.1063000000E+09     0.1000000000E+03
         0.1063000000E+09     0.1000000000E+03
         0.1064000000E+09     0.1000000000E+03
         0.1065000000E+09     0.1000000000E+03
         0.1066000000E+09     0.1000000000E+03
         0.1067000000E+09     0.1000000000E+03
         0.1068000000E+09     0.1000000000E+03
         0.1069000000E+09     0.1000000000E+03
         0.1069000000E+09     0.1000000000E+03
         0.1070000000E+09     0.1000000000E+03
         0.1071000000E+09     0.1000000000E+03
         0.1072000000E+09     0.1000000000E+03
         0.1073000000E+09     0.1000000000E+03
         0.1074000000E+09     0.1000000000E+03
         0.1075000000E+09     0.1000000000E+03
         0.1076000000E+09     0.1000000000E+03
         0.1077000000E+09     0.1000000000E+03
         0.1078000000E+09     0.1000000000E+03
         0.1079000000E+09     0.1000000000E+03
         0.1079000000E+09     0.1000000000E+03
         0.1080000000E+09     0.1000000000E+03
         0.1081000000E+09     0.1000000000E+03
         0.1082000000E+09     0.1000000000E+03
         0.1083000000E+09     0.1000000000E+03
         0.1084000000E+09     0.1000000000E+03
         0.1085000000E+09     0.1000000000E+03
         0.1085000000E+09     0.1000000000E+03
         0.1086000000E+09     0.1000000000E+03
         0.1087000000E+09     0.1000000000E+03
         0.1088000000E+09     0.1000000000E+03
         0.1089000000E+09     0.1000000000E+03
         0.1090000000E+09     0.1000000000E+03
         0.1091000000E+09     0.1000000000E+03
         0.1091000000E+09     0.1000000000E+03
         0.1092000000E+09     0.1000000000E+03
         0.1093000000E+09     0.1000000000E+03
         0.1094000000E+09     0.1000000000E+03
         0.1095000000E+09     0.1000000000E+03
         0.1096000000E+09     0.1000000000E+03
         0.1097000000E+09     0.1000000000E+03
         0.1098000000E+09     0.1000000000E+03
         0.1099000000E+09     0.1000000000E+03
         0.1100000000E+09     0.1000000000E+03
         0.1101000000E+09     0.1000000000E+03
         0.1101000000E+09     0.1000000000E+03
         0.1102000000E+09     0.1000000000E+03
         0.1103000000E+09     0.1000000000E+03
         0.1104000000E+09     0.1000000000E+03
         0.1105000000E+09     0.1000000000E+03
         0.1106000000E+09     0.1000000000E+03
         0.1107000000E+09     0.1000000000E+03
         0.1107000000E+09     0.1000000000E+03
         0.1108000000E+09     0.1000000000E+03
         0.1109000000E+09     0.1000000000E+03
         0.1110000000E+09     0.1000000000E+03
         0.1111000000E+09     0.1000000000E+03
         0.1112000000E+09     0.1000000000E+03
         0.1113000000E+09     0.1000000000E+03
         0.1113000000E+09     0.1000000000E+03
         0.1114000000E+09     0.1000000000E+03
         0.1115000000E+09     0.1000000000E+03
         0.1116000000E+09     0.1000000000E+03
         0.1117000000E+09     0.1000000000E+03
         0.1118000000E+09     0.1000000000E+03
         0.1119000000E+09     0.1000000000E+03
         0.1120000000E+09     0.1000000000E+03
         0.1121000000E+09     0.1000000000E+03
         0.1122000000E+09     0.1000000000E+03
         0.1123000000E+09     0.1000000000E+03
         0.1123000000E+09     0.1000000000E+03
         0.1124000000E+09     0.1000000000E+03
         0.1125000000E+09     0.1000000000E+03
         0.1126000000E+09     0.1000000000E+03
         0.1127000000E+09     0.1000000000E+03
         0.1128000000E+09     0.1000000000E+03
         0.1129000000E+09     0.1000000000E+03
         0.1129000000E+09     0.1000000000E+03
         0.1130000000E+09     0.1000000000E+03
         0.1131000000E+09     0.1000000000E+03
         0.1132000000E+09     0.1000000000E+03
         0.1133000000E+09     0.1000000000E+03
         0.1134000000E+09     0.1000000000E+03
         0.1135000000E+09     0.1000000000E+03
         0.1135000000E+09     0.1000000000E+03
         0.1136000000E+09     0.1000000000E+03
         0.1137000000E+09     0.1000000000E+03
         0.1138000000E+09     0.1000000000E+03
         0.1139000000E+09     0.1000000000E+03
         0.1140000000E+09     0.1000000000E+03
         0.1141000000E+09     0.1000000000E+03
         0.1142000000E+09     0.1000000000E+03
         0.1143000000E+09     0.1000000000E+03
         0.1144000000E+09     0.1000000000E+03
         0.1145000000E+09     0.1000000000E+03
         0.1145000000E+09     0.1000000000E+03
         0.1146000000E+09     0.1000000000E+03
         0.1147000000E+09     0.1000000000E+03
         0.1148000000E+09     0.1000000000E+03
         0.1149000000E+09     0.1000000000E+03
         0.1150000000E+09     0.1000000000E+03
         0.1151000000E+09     0.1000000000E+03
         0.1151000000E+09     0.1000000000E+03
         0.1152000000E+09     0.1000000000E+03
         0.1153000000E+09     0.1000000000E+03
         0.1154000000E+09     0.1000000000E+03
         0.1155000000E+09     0.1000000000E+03
         0.1156000000E+09     0.1000000000E+03
         0.1157000000E+09     0.1000000000E+03
         0.1157000000E+09     0.1000000000E+03
         0.1158000000E+09     0.1000000000E+03
         0.1159000000E+09     0.1000000000E+03
         0.1160000000E+09     0.1000000000E+03
         0.1161000000E+09     0.1000000000E+03
         0.1162000000E+09     0.1000000000E+03
         0.1163000000E+09     0.1000000000E+03
         0.1164000000E+09     0.1000000000E+03
         0.1165000000E+09     0.1000000000E+03
         0.1166000000E+09     0.1000000000E+03
         0.1167000000E+09     0.1000000000E+03
         0.1167000000E+09     0.1000000000E+03
         0.1168000000E+09     0.1000000000E+03
         0.1169000000E+09     0.1000000000E+03
         0.1170000000E+09     0.1000000000E+03
         0.1171000000E+09     0.1000000000E+03
         0.1172000000E+09     0.1000000000E+03
         0.1173000000E+09     0.1000000000E+03
         0.1173000000E+09     0.1000000000E+03
         0.1174000000E+09     0.1000000000E+03
         0.1175000000E+09     0.1000000000E+03
         0.1176000000E+09     0.1000000000E+03
         0.1177000000E+09     0.1000000000E+03
         0.1178000000E+09     0.1000000000E+03
         0.1179000000E+09     0.1000000000E+03
         0.1179000000E+09     0.1000000000E+03
         0.1180000000E+09     0.1000000000E+03
         0.1181000000E+09     0.1000000000E+03
         0.1182000000E+09     0.1000000000E+03
         0.1183000000E+09     0.1000000000E+03
         0.1184000000E+09     0.1000000000E+03
         0.1185000000E+09     0.1000000000E+03
         0.1186000000E+09     0.1000000000E+03
         0.1187000000E+09     0.1000000000E+03
         0.1188000000E+09     0.1000000000E+03
         0.1189000000E+09     0.1000000000E+03
         0.1189000000E+09     0.1000000000E+03
         0.1190000000E+09     0.1000000000E+03
         0.1191000000E+09     0.1000000000E+03
         0.1192000000E+09     0.1000000000E+03
         0.1193000000E+09     0.1000000000E+03
         0.1194000000E+09     0.1000000000E+03
         0.1195000000E+09     0.1000000000E+03
         0.1195000000E+09     0.1000000000E+03
         0.1196000000E+09     0.1000000000E+03
         0.1197000000E+09     0.1000000000E+03
         0.1198000000E+09     0.1000000000E+03
         0.1199000000E+09     0.1000000000E+03
         0.1200000000E+09     0.1000000000E+03
         0.1201000000E+09     0.1000000000E+03
         0.1201000000E+09     0.1000000000E+03
         0.1202000000E+09     0.1000000000E+03
         0.1203000000E+09     0.1000000000E+03
         0.1204000000E+09     0.1000000000E+03
         0.1205000000E+09     0.1000000000E+03
         0.1206000000E+09     0.1000000000E+03
         0.1207000000E+09     0.1000000000E+03
         0.1208000000E+09     0.1000000000E+03
         0.1209000000E+09     0.1000000000E+03
         0.1210000000E+09     0.1000000000E+03
         0.1211000000E+09     0.1000000000E+03
         0.1211000000E+09     0.1000000000E+03
         0.1212000000E+09     0.1000000000E+03
         0.1213000000E+09     0.1000000000E+03
         0.1214000000E+09     0.1000000000E+03
         0.1215000000E+09     0.1000000000E+03
         0.1216000000E+09     0.1000000000E+03
         0.1217000000E+09     0.1000000000E+03
         0.1217000000E+09     0.1000000000E+03
         0.1218000000E+09     0.1000000000E+03
         0.1219000000E+09     0.1000000000E+03
         0.1220000000E+09     0.1000000000E+03
         0.1221000000E+09     0.1000000000E+03
         0.1222000000E+09     0.1000000000E+03
         0.1223000000E+09     0.1000000000E+03
         0.1223000000E+09     0.1000000000E+03
         0.1224000000E+09     0.1000000000E+03
         0.1225000000E+09     0.1000000000E+03
         0.1226000000E+09     0.1000000000E+03
         0.1227000000E+09     0.1000000000E+03
         0.1228000000E+09     0.1000000000E+03
         0.1229000000E+09     0.1000000000E+03
         0.1230000000E+09     0.1000000000E+03
         0.1231000000E+09     0.1000000000E+03
         0.1232000000E+09     0.1000000000E+03
         0.1233000000E+09     0.1000000000E+03
         0.1233000000E+09     0.1000000000E+03
         0.1234000000E+09     0.1000000000E+03
         0.1235000000E+09     0.1000000000E+03
         0.1236000000E+09     0.1000000000E+03
         0.1237000000E+09     0.1000000000E+03
         0.1238000000E+09     0.1000000000E+03
         0.1239000000E+09     0.1000000000E+03
         0.1239000000E+09     0.1000000000E+03
         0.1240000000E+09     0.1000000000E+03
         0.1241000000E+09     0.1000000000E+03
         0.1242000000E+09     0.1000000000E+03
         0.1243000000E+09     0.1000000000E+03
         0.1244000000E+09     0.1000000000E+03
         0.1245000000E+09     0.1000000000E+03
         0.1245000000E+09     0.1000000000E+03
         0.1246000000E+09     0.1000000000E+03
         0.1247000000E+09     0.1000000000E+03
         0.1248000000E+09     0.1000000000E+03
         0.1249000000E+09     0.1000000000E+03
         0.1250000000E+09     0.1000000000E+03
         0.1251000000E+09     0.1000000000E+03
         0.1252000000E+09     0.1000000000E+03
         0.1253000000E+09     0.1000000000E+03
         0.1254000000E+09     0.1000000000E+03
         0.1255000000E+09     0.1000000000E+03
         0.1255000000E+09     0.1000000000E+03
         0.1256000000E+09     0.1000000000E+03
         0.1257000000E+09     0.1000000000E+03
         0.1258000000E+09     0.1000000000E+03
         0.1259000000E+09     0.1000000000E+03
         0.1260000000E+09     0.1000000000E+03



            AREAL INFILTRATION RATE
 READING ON UNIT   19 WITH FORMAT: (10F4.0)            

            1           2           3           4           5           6           7           8           9          10
 ........................................................................................................................
   1   1.0000E-10  2.0000E-10   0.000       0.000       0.000       0.000       0.000       0.000       0.000       0.000    
   2   2.0000E-10  1.0000E-10  2.0000E-10   0.000       0.000      8.0000E-10  8.0000E-10  5.0000E-10   0.000       0.000    
   3    0.000      5.0000E-10  1.0000E-10  1.0000E-10  8.0000E-10  8.0000E-10  5.0000E-10  5.0000E-10   0.000       0.000    
   4   8.0000E-10  5.0000E-10  1.0000E-10  1.0000E-10  1.0000E-10  1.0000E-10  1.0000E-10  1.0000E-10  2.0000E-10   0.000    
   5   8.0000E-10  5.0000E-10  1.0000E-10  1.0000E-10  1.0000E-10  1.0000E-10  1.0000E-10  1.0000E-10  1.0000E-10  1.0000E-10
   6   8.0000E-10  5.0000E-10  5.0000E-10  2.0000E-10  2.0000E-10  1.0000E-10  1.0000E-10  1.0000E-10  1.0000E-10  5.0000E-10
   7   8.0000E-10  5.0000E-10  5.0000E-10  2.0000E-10  2.0000E-10  1.0000E-10  1.0000E-10  2.0000E-10  2.0000E-10   0.000    
   8    0.000      5.0000E-10  5.0000E-10  2.0000E-10  2.0000E-10  1.0000E-10  1.0000E-10  2.0000E-10  5.0000E-10   0.000    
   9    0.000      5.0000E-10  5.0000E-10  2.0000E-10  2.0000E-10  1.0000E-10  1.0000E-10  2.0000E-10  5.0000E-10   0.000    
  10    0.000      5.0000E-10  5.0000E-10  2.0000E-10  2.0000E-10  1.0000E-10  1.0000E-10  2.0000E-10  5.0000E-10  8.0000E-10
  11    0.000      1.0000E-10  1.0000E-10  1.0000E-10  1.0000E-10  1.0000E-10  1.0000E-10  2.0000E-10  5.0000E-10   0.000    
  12   1.0000E-10  1.0000E-10  1.0000E-10  1.0000E-10  1.0000E-10  1.0000E-10  1.0000E-10  1.0000E-10  2.0000E-10   0.000    
  13   1.0000E-10  1.0000E-10  2.0000E-10  2.0000E-10  2.0000E-10  2.0000E-10  2.0000E-10  1.0000E-10  1.0000E-10   0.000    
  14    0.000      2.0000E-10  5.0000E-10  5.0000E-10  5.0000E-10  5.0000E-10  5.0000E-10  2.0000E-10  1.0000E-10   0.000    
  15    0.000       0.000      8.0000E-10  8.0000E-10  8.0000E-10  8.0000E-10   0.000       0.000       0.000       0.000    

                  ET RATE =  1.000000E-08

      ET EXTINCTION DEPTH =  0.500000    

 EXTINCTION WATER CONTENT =  0.200000    

EXTINCTION WATER CONTENT FOR CELL AT ROW     1, COLUMN     1 IS LESS THAN RESIDUAL WATER CONTENT-- SETTING EXTINCTION WATER CONTENT EQUAL TO RESIDUAL WATER CONTENT

EXTINCTION WATER CONTENT FOR CELL AT ROW     1, COLUMN     2 IS LESS THAN RESIDUAL WATER CONTENT-- SETTING EXTINCTION WATER CONTENT EQUAL TO RESIDUAL WATER CONTENT

EXTINCTION WATER CONTENT FOR CELL AT ROW     2, COLUMN     1 IS LESS THAN RESIDUAL WATER CONTENT-- SETTING EXTINCTION WATER CONTENT EQUAL TO RESIDUAL WATER CONTENT

EXTINCTION WATER CONTENT FOR CELL AT ROW     2, COLUMN     2 IS LESS THAN RESIDUAL WATER CONTENT-- SETTING EXTINCTION WATER CONTENT EQUAL TO RESIDUAL WATER CONTENT

EXTINCTION WATER CONTENT FOR CELL AT ROW     2, COLUMN     3 IS LESS THAN RESIDUAL WATER CONTENT-- SETTING EXTINCTION WATER CONTENT EQUAL TO RESIDUAL WATER CONTENT

EXTINCTION WATER CONTENT FOR CELL AT ROW     2, COLUMN     6 IS LESS THAN RESIDUAL WATER CONTENT-- SETTING EXTINCTION WATER CONTENT EQUAL TO RESIDUAL WATER CONTENT

EXTINCTION WATER CONTENT FOR CELL AT ROW     2, COLUMN     7 IS LESS THAN RESIDUAL WATER CONTENT-- SETTING EXTINCTION WATER CONTENT EQUAL TO RESIDUAL WATER CONTENT

EXTINCTION WATER CONTENT FOR CELL AT ROW     2, COLUMN     8 IS LESS THAN RESIDUAL WATER CONTENT-- SETTING EXTINCTION WATER CONTENT EQUAL TO RESIDUAL WATER CONTENT

EXTINCTION WATER CONTENT FOR CELL AT ROW     3, COLUMN     2 IS LESS THAN RESIDUAL WATER CONTENT-- SETTING EXTINCTION WATER CONTENT EQUAL TO RESIDUAL WATER CONTENT

EXTINCTION WATER CONTENT FOR CELL AT ROW     3, COLUMN     3 IS LESS THAN RESIDUAL WATER CONTENT-- SETTING EXTINCTION WATER CONTENT EQUAL TO RESIDUAL WATER CONTENT

EXTINCTION WATER CONTENT FOR CELL AT ROW     3, COLUMN     4 IS LESS THAN RESIDUAL WATER CONTENT-- SETTING EXTINCTION WATER CONTENT EQUAL TO RESIDUAL WATER CONTENT

EXTINCTION WATER CONTENT FOR CELL AT ROW     3, COLUMN     5 IS LESS THAN RESIDUAL WATER CONTENT-- SETTING EXTINCTION WATER CONTENT EQUAL TO RESIDUAL WATER CONTENT

EXTINCTION WATER CONTENT FOR CELL AT ROW     3, COLUMN     6 IS LESS THAN RESIDUAL WATER CONTENT-- SETTING EXTINCTION WATER CONTENT EQUAL TO RESIDUAL WATER CONTENT

EXTINCTION WATER CONTENT FOR CELL AT ROW     3, COLUMN     7 IS LESS THAN RESIDUAL WATER CONTENT-- SETTING EXTINCTION WATER CONTENT EQUAL TO RESIDUAL WATER CONTENT

EXTINCTION WATER CONTENT FOR CELL AT ROW     3, COLUMN     8 IS LESS THAN RESIDUAL WATER CONTENT-- SETTING EXTINCTION WATER CONTENT EQUAL TO RESIDUAL WATER CONTENT

EXTINCTION WATER CONTENT FOR CELL AT ROW     4, COLUMN     1 IS LESS THAN RESIDUAL WATER CONTENT-- SETTING EXTINCTION WATER CONTENT EQUAL TO RESIDUAL WATER CONTENT

EXTINCTION WATER CONTENT FOR CELL AT ROW     4, COLUMN     2 IS LESS THAN RESIDUAL WATER CONTENT-- SETTING EXTINCTION WATER CONTENT EQUAL TO RESIDUAL WATER CONTENT

EXTINCTION WATER CONTENT FOR CELL AT ROW     4, COLUMN     3 IS LESS THAN RESIDUAL WATER CONTENT-- SETTING EXTINCTION WATER CONTENT EQUAL TO RESIDUAL WATER CONTENT

EXTINCTION WATER CONTENT FOR CELL AT ROW     4, COLUMN     4 IS LESS THAN RESIDUAL WATER CONTENT-- SETTING EXTINCTION WATER CONTENT EQUAL TO RESIDUAL WATER CONTENT

EXTINCTION WATER CONTENT FOR CELL AT ROW     4, COLUMN     5 IS LESS THAN RESIDUAL WATER CONTENT-- SETTING EXTINCTION WATER CONTENT EQUAL TO RESIDUAL WATER CONTENT

EXTINCTION WATER CONTENT FOR CELL AT ROW     4, COLUMN     6 IS LESS THAN RESIDUAL WATER CONTENT-- SETTING EXTINCTION WATER CONTENT EQUAL TO RESIDUAL WATER CONTENT

EXTINCTION WATER CONTENT FOR CELL AT ROW     4, COLUMN     7 IS LESS THAN RESIDUAL WATER CONTENT-- SETTING EXTINCTION WATER CONTENT EQUAL TO RESIDUAL WATER CONTENT

EXTINCTION WATER CONTENT FOR CELL AT ROW     4, COLUMN     8 IS LESS THAN RESIDUAL WATER CONTENT-- SETTING EXTINCTION WATER CONTENT EQUAL TO RESIDUAL WATER CONTENT

EXTINCTION WATER CONTENT FOR CELL AT ROW     4, COLUMN     9 IS LESS THAN RESIDUAL WATER CONTENT-- SETTING EXTINCTION WATER CONTENT EQUAL TO RESIDUAL WATER CONTENT

EXTINCTION WATER CONTENT FOR CELL AT ROW     5, COLUMN     1 IS LESS THAN RESIDUAL WATER CONTENT-- SETTING EXTINCTION WATER CONTENT EQUAL TO RESIDUAL WATER CONTENT

EXTINCTION WATER CONTENT FOR CELL AT ROW     5, COLUMN     2 IS LESS THAN RESIDUAL WATER CONTENT-- SETTING EXTINCTION WATER CONTENT EQUAL TO RESIDUAL WATER CONTENT

EXTINCTION WATER CONTENT FOR CELL AT ROW     5, COLUMN     3 IS LESS THAN RESIDUAL WATER CONTENT-- SETTING EXTINCTION WATER CONTENT EQUAL TO RESIDUAL WATER CONTENT

EXTINCTION WATER CONTENT FOR CELL AT ROW     5, COLUMN     4 IS LESS THAN RESIDUAL WATER CONTENT-- SETTING EXTINCTION WATER CONTENT EQUAL TO RESIDUAL WATER CONTENT

EXTINCTION WATER CONTENT FOR CELL AT ROW     5, COLUMN     5 IS LESS THAN RESIDUAL WATER CONTENT-- SETTING EXTINCTION WATER CONTENT EQUAL TO RESIDUAL WATER CONTENT

EXTINCTION WATER CONTENT FOR CELL AT ROW     5, COLUMN     6 IS LESS THAN RESIDUAL WATER CONTENT-- SETTING EXTINCTION WATER CONTENT EQUAL TO RESIDUAL WATER CONTENT

EXTINCTION WATER CONTENT FOR CELL AT ROW     5, COLUMN     7 IS LESS THAN RESIDUAL WATER CONTENT-- SETTING EXTINCTION WATER CONTENT EQUAL TO RESIDUAL WATER CONTENT

EXTINCTION WATER CONTENT FOR CELL AT ROW     5, COLUMN     8 IS LESS THAN RESIDUAL WATER CONTENT-- SETTING EXTINCTION WATER CONTENT EQUAL TO RESIDUAL WATER CONTENT

EXTINCTION WATER CONTENT FOR CELL AT ROW     5, COLUMN     9 IS LESS THAN RESIDUAL WATER CONTENT-- SETTING EXTINCTION WATER CONTENT EQUAL TO RESIDUAL WATER CONTENT

EXTINCTION WATER CONTENT FOR CELL AT ROW     5, COLUMN    10 IS LESS THAN RESIDUAL WATER CONTENT-- SETTING EXTINCTION WATER CONTENT EQUAL TO RESIDUAL WATER CONTENT

EXTINCTION WATER CONTENT FOR CELL AT ROW     6, COLUMN     1 IS LESS THAN RESIDUAL WATER CONTENT-- SETTING EXTINCTION WATER CONTENT EQUAL TO RESIDUAL WATER CONTENT

EXTINCTION WATER CONTENT FOR CELL AT ROW     6, COLUMN     2 IS LESS THAN RESIDUAL WATER CONTENT-- SETTING EXTINCTION WATER CONTENT EQUAL TO RESIDUAL WATER CONTENT

EXTINCTION WATER CONTENT FOR CELL AT ROW     6, COLUMN     3 IS LESS THAN RESIDUAL WATER CONTENT-- SETTING EXTINCTION WATER CONTENT EQUAL TO RESIDUAL WATER CONTENT

EXTINCTION WATER CONTENT FOR CELL AT ROW     6, COLUMN     4 IS LESS THAN RESIDUAL WATER CONTENT-- SETTING EXTINCTION WATER CONTENT EQUAL TO RESIDUAL WATER CONTENT

EXTINCTION WATER CONTENT FOR CELL AT ROW     6, COLUMN     5 IS LESS THAN RESIDUAL WATER CONTENT-- SETTING EXTINCTION WATER CONTENT EQUAL TO RESIDUAL WATER CONTENT

EXTINCTION WATER CONTENT FOR CELL AT ROW     6, COLUMN     6 IS LESS THAN RESIDUAL WATER CONTENT-- SETTING EXTINCTION WATER CONTENT EQUAL TO RESIDUAL WATER CONTENT

EXTINCTION WATER CONTENT FOR CELL AT ROW     6, COLUMN     7 IS LESS THAN RESIDUAL WATER CONTENT-- SETTING EXTINCTION WATER CONTENT EQUAL TO RESIDUAL WATER CONTENT

EXTINCTION WATER CONTENT FOR CELL AT ROW     6, COLUMN     8 IS LESS THAN RESIDUAL WATER CONTENT-- SETTING EXTINCTION WATER CONTENT EQUAL TO RESIDUAL WATER CONTENT

EXTINCTION WATER CONTENT FOR CELL AT ROW     6, COLUMN     9 IS LESS THAN RESIDUAL WATER CONTENT-- SETTING EXTINCTION WATER CONTENT EQUAL TO RESIDUAL WATER CONTENT

EXTINCTION WATER CONTENT FOR CELL AT ROW     6, COLUMN    10 IS LESS THAN RESIDUAL WATER CONTENT-- SETTING EXTINCTION WATER CONTENT EQUAL TO RESIDUAL WATER CONTENT

EXTINCTION WATER CONTENT FOR CELL AT ROW     7, COLUMN     1 IS LESS THAN RESIDUAL WATER CONTENT-- SETTING EXTINCTION WATER CONTENT EQUAL TO RESIDUAL WATER CONTENT

EXTINCTION WATER CONTENT FOR CELL AT ROW     7, COLUMN     2 IS LESS THAN RESIDUAL WATER CONTENT-- SETTING EXTINCTION WATER CONTENT EQUAL TO RESIDUAL WATER CONTENT

EXTINCTION WATER CONTENT FOR CELL AT ROW     7, COLUMN     3 IS LESS THAN RESIDUAL WATER CONTENT-- SETTING EXTINCTION WATER CONTENT EQUAL TO RESIDUAL WATER CONTENT

EXTINCTION WATER CONTENT FOR CELL AT ROW     7, COLUMN     4 IS LESS THAN RESIDUAL WATER CONTENT-- SETTING EXTINCTION WATER CONTENT EQUAL TO RESIDUAL WATER CONTENT

EXTINCTION WATER CONTENT FOR CELL AT ROW     7, COLUMN     5 IS LESS THAN RESIDUAL WATER CONTENT-- SETTING EXTINCTION WATER CONTENT EQUAL TO RESIDUAL WATER CONTENT

EXTINCTION WATER CONTENT FOR CELL AT ROW     7, COLUMN     6 IS LESS THAN RESIDUAL WATER CONTENT-- SETTING EXTINCTION WATER CONTENT EQUAL TO RESIDUAL WATER CONTENT

EXTINCTION WATER CONTENT FOR CELL AT ROW     7, COLUMN     7 IS LESS THAN RESIDUAL WATER CONTENT-- SETTING EXTINCTION WATER CONTENT EQUAL TO RESIDUAL WATER CONTENT

EXTINCTION WATER CONTENT FOR CELL AT ROW     7, COLUMN     8 IS LESS THAN RESIDUAL WATER CONTENT-- SETTING EXTINCTION WATER CONTENT EQUAL TO RESIDUAL WATER CONTENT

EXTINCTION WATER CONTENT FOR CELL AT ROW     7, COLUMN     9 IS LESS THAN RESIDUAL WATER CONTENT-- SETTING EXTINCTION WATER CONTENT EQUAL TO RESIDUAL WATER CONTENT

EXTINCTION WATER CONTENT FOR CELL AT ROW     8, COLUMN     2 IS LESS THAN RESIDUAL WATER CONTENT-- SETTING EXTINCTION WATER CONTENT EQUAL TO RESIDUAL WATER CONTENT

EXTINCTION WATER CONTENT FOR CELL AT ROW     8, COLUMN     3 IS LESS THAN RESIDUAL WATER CONTENT-- SETTING EXTINCTION WATER CONTENT EQUAL TO RESIDUAL WATER CONTENT

EXTINCTION WATER CONTENT FOR CELL AT ROW     8, COLUMN     4 IS LESS THAN RESIDUAL WATER CONTENT-- SETTING EXTINCTION WATER CONTENT EQUAL TO RESIDUAL WATER CONTENT

EXTINCTION WATER CONTENT FOR CELL AT ROW     8, COLUMN     5 IS LESS THAN RESIDUAL WATER CONTENT-- SETTING EXTINCTION WATER CONTENT EQUAL TO RESIDUAL WATER CONTENT

EXTINCTION WATER CONTENT FOR CELL AT ROW     8, COLUMN     6 IS LESS THAN RESIDUAL WATER CONTENT-- SETTING EXTINCTION WATER CONTENT EQUAL TO RESIDUAL WATER CONTENT

EXTINCTION WATER CONTENT FOR CELL AT ROW     8, COLUMN     7 IS LESS THAN RESIDUAL WATER CONTENT-- SETTING EXTINCTION WATER CONTENT EQUAL TO RESIDUAL WATER CONTENT

EXTINCTION WATER CONTENT FOR CELL AT ROW     8, COLUMN     8 IS LESS THAN RESIDUAL WATER CONTENT-- SETTING EXTINCTION WATER CONTENT EQUAL TO RESIDUAL WATER CONTENT

EXTINCTION WATER CONTENT FOR CELL AT ROW     8, COLUMN     9 IS LESS THAN RESIDUAL WATER CONTENT-- SETTING EXTINCTION WATER CONTENT EQUAL TO RESIDUAL WATER CONTENT

EXTINCTION WATER CONTENT FOR CELL AT ROW     9, COLUMN     2 IS LESS THAN RESIDUAL WATER CONTENT-- SETTING EXTINCTION WATER CONTENT EQUAL TO RESIDUAL WATER CONTENT

EXTINCTION WATER CONTENT FOR CELL AT ROW     9, COLUMN     3 IS LESS THAN RESIDUAL WATER CONTENT-- SETTING EXTINCTION WATER CONTENT EQUAL TO RESIDUAL WATER CONTENT

EXTINCTION WATER CONTENT FOR CELL AT ROW     9, COLUMN     4 IS LESS THAN RESIDUAL WATER CONTENT-- SETTING EXTINCTION WATER CONTENT EQUAL TO RESIDUAL WATER CONTENT

EXTINCTION WATER CONTENT FOR CELL AT ROW     9, COLUMN     5 IS LESS THAN RESIDUAL WATER CONTENT-- SETTING EXTINCTION WATER CONTENT EQUAL TO RESIDUAL WATER CONTENT

EXTINCTION WATER CONTENT FOR CELL AT ROW     9, COLUMN     6 IS LESS THAN RESIDUAL WATER CONTENT-- SETTING EXTINCTION WATER CONTENT EQUAL TO RESIDUAL WATER CONTENT

EXTINCTION WATER CONTENT FOR CELL AT ROW     9, COLUMN     7 IS LESS THAN RESIDUAL WATER CONTENT-- SETTING EXTINCTION WATER CONTENT EQUAL TO RESIDUAL WATER CONTENT

EXTINCTION WATER CONTENT FOR CELL AT ROW     9, COLUMN     8 IS LESS THAN RESIDUAL WATER CONTENT-- SETTING EXTINCTION WATER CONTENT EQUAL TO RESIDUAL WATER CONTENT

EXTINCTION WATER CONTENT FOR CELL AT ROW     9, COLUMN     9 IS LESS THAN RESIDUAL WATER CONTENT-- SETTING EXTINCTION WATER CONTENT EQUAL TO RESIDUAL WATER CONTENT

EXTINCTION WATER CONTENT FOR CELL AT ROW    10, COLUMN     2 IS LESS THAN RESIDUAL WATER CONTENT-- SETTING EXTINCTION WATER CONTENT EQUAL TO RESIDUAL WATER CONTENT

EXTINCTION WATER CONTENT FOR CELL AT ROW    10, COLUMN     3 IS LESS THAN RESIDUAL WATER CONTENT-- SETTING EXTINCTION WATER CONTENT EQUAL TO RESIDUAL WATER CONTENT

EXTINCTION WATER CONTENT FOR CELL AT ROW    10, COLUMN     4 IS LESS THAN RESIDUAL WATER CONTENT-- SETTING EXTINCTION WATER CONTENT EQUAL TO RESIDUAL WATER CONTENT

EXTINCTION WATER CONTENT FOR CELL AT ROW    10, COLUMN     5 IS LESS THAN RESIDUAL WATER CONTENT-- SETTING EXTINCTION WATER CONTENT EQUAL TO RESIDUAL WATER CONTENT

EXTINCTION WATER CONTENT FOR CELL AT ROW    10, COLUMN     6 IS LESS THAN RESIDUAL WATER CONTENT-- SETTING EXTINCTION WATER CONTENT EQUAL TO RESIDUAL WATER CONTENT

EXTINCTION WATER CONTENT FOR CELL AT ROW    10, COLUMN     7 IS LESS THAN RESIDUAL WATER CONTENT-- SETTING EXTINCTION WATER CONTENT EQUAL TO RESIDUAL WATER CONTENT

EXTINCTION WATER CONTENT FOR CELL AT ROW    10, COLUMN     8 IS LESS THAN RESIDUAL WATER CONTENT-- SETTING EXTINCTION WATER CONTENT EQUAL TO RESIDUAL WATER CONTENT

EXTINCTION WATER CONTENT FOR CELL AT ROW    10, COLUMN     9 IS LESS THAN RESIDUAL WATER CONTENT-- SETTING EXTINCTION WATER CONTENT EQUAL TO RESIDUAL WATER CONTENT

EXTINCTION WATER CONTENT FOR CELL AT ROW    10, COLUMN    10 IS LESS THAN RESIDUAL WATER CONTENT-- SETTING EXTINCTION WATER CONTENT EQUAL TO RESIDUAL WATER CONTENT

EXTINCTION WATER CONTENT FOR CELL AT ROW    11, COLUMN     2 IS LESS THAN RESIDUAL WATER CONTENT-- SETTING EXTINCTION WATER CONTENT EQUAL TO RESIDUAL WATER CONTENT

EXTINCTION WATER CONTENT FOR CELL AT ROW    11, COLUMN     3 IS LESS THAN RESIDUAL WATER CONTENT-- SETTING EXTINCTION WATER CONTENT EQUAL TO RESIDUAL WATER CONTENT

EXTINCTION WATER CONTENT FOR CELL AT ROW    11, COLUMN     4 IS LESS THAN RESIDUAL WATER CONTENT-- SETTING EXTINCTION WATER CONTENT EQUAL TO RESIDUAL WATER CONTENT

EXTINCTION WATER CONTENT FOR CELL AT ROW    11, COLUMN     5 IS LESS THAN RESIDUAL WATER CONTENT-- SETTING EXTINCTION WATER CONTENT EQUAL TO RESIDUAL WATER CONTENT

EXTINCTION WATER CONTENT FOR CELL AT ROW    11, COLUMN     6 IS LESS THAN RESIDUAL WATER CONTENT-- SETTING EXTINCTION WATER CONTENT EQUAL TO RESIDUAL WATER CONTENT

EXTINCTION WATER CONTENT FOR CELL AT ROW    11, COLUMN     7 IS LESS THAN RESIDUAL WATER CONTENT-- SETTING EXTINCTION WATER CONTENT EQUAL TO RESIDUAL WATER CONTENT

EXTINCTION WATER CONTENT FOR CELL AT ROW    11, COLUMN     8 IS LESS THAN RESIDUAL WATER CONTENT-- SETTING EXTINCTION WATER CONTENT EQUAL TO RESIDUAL WATER CONTENT

EXTINCTION WATER CONTENT FOR CELL AT ROW    11, COLUMN     9 IS LESS THAN RESIDUAL WATER CONTENT-- SETTING EXTINCTION WATER CONTENT EQUAL TO RESIDUAL WATER CONTENT

EXTINCTION WATER CONTENT FOR CELL AT ROW    12, COLUMN     1 IS LESS THAN RESIDUAL WATER CONTENT-- SETTING EXTINCTION WATER CONTENT EQUAL TO RESIDUAL WATER CONTENT

EXTINCTION WATER CONTENT FOR CELL AT ROW    12, COLUMN     2 IS LESS THAN RESIDUAL WATER CONTENT-- SETTING EXTINCTION WATER CONTENT EQUAL TO RESIDUAL WATER CONTENT

EXTINCTION WATER CONTENT FOR CELL AT ROW    12, COLUMN     3 IS LESS THAN RESIDUAL WATER CONTENT-- SETTING EXTINCTION WATER CONTENT EQUAL TO RESIDUAL WATER CONTENT

EXTINCTION WATER CONTENT FOR CELL AT ROW    12, COLUMN     4 IS LESS THAN RESIDUAL WATER CONTENT-- SETTING EXTINCTION WATER CONTENT EQUAL TO RESIDUAL WATER CONTENT

EXTINCTION WATER CONTENT FOR CELL AT ROW    12, COLUMN     5 IS LESS THAN RESIDUAL WATER CONTENT-- SETTING EXTINCTION WATER CONTENT EQUAL TO RESIDUAL WATER CONTENT

EXTINCTION WATER CONTENT FOR CELL AT ROW    12, COLUMN     6 IS LESS THAN RESIDUAL WATER CONTENT-- SETTING EXTINCTION WATER CONTENT EQUAL TO RESIDUAL WATER CONTENT

EXTINCTION WATER CONTENT FOR CELL AT ROW    12, COLUMN     7 IS LESS THAN RESIDUAL WATER CONTENT-- SETTING EXTINCTION WATER CONTENT EQUAL TO RESIDUAL WATER CONTENT

EXTINCTION WATER CONTENT FOR CELL AT ROW    12, COLUMN     8 IS LESS THAN RESIDUAL WATER CONTENT-- SETTING EXTINCTION WATER CONTENT EQUAL TO RESIDUAL WATER CONTENT

EXTINCTION WATER CONTENT FOR CELL AT ROW    12, COLUMN     9 IS LESS THAN RESIDUAL WATER CONTENT-- SETTING EXTINCTION WATER CONTENT EQUAL TO RESIDUAL WATER CONTENT

EXTINCTION WATER CONTENT FOR CELL AT ROW    13, COLUMN     1 IS LESS THAN RESIDUAL WATER CONTENT-- SETTING EXTINCTION WATER CONTENT EQUAL TO RESIDUAL WATER CONTENT

EXTINCTION WATER CONTENT FOR CELL AT ROW    13, COLUMN     2 IS LESS THAN RESIDUAL WATER CONTENT-- SETTING EXTINCTION WATER CONTENT EQUAL TO RESIDUAL WATER CONTENT

EXTINCTION WATER CONTENT FOR CELL AT ROW    13, COLUMN     3 IS LESS THAN RESIDUAL WATER CONTENT-- SETTING EXTINCTION WATER CONTENT EQUAL TO RESIDUAL WATER CONTENT

EXTINCTION WATER CONTENT FOR CELL AT ROW    13, COLUMN     4 IS LESS THAN RESIDUAL WATER CONTENT-- SETTING EXTINCTION WATER CONTENT EQUAL TO RESIDUAL WATER CONTENT

EXTINCTION WATER CONTENT FOR CELL AT ROW    13, COLUMN     5 IS LESS THAN RESIDUAL WATER CONTENT-- SETTING EXTINCTION WATER CONTENT EQUAL TO RESIDUAL WATER CONTENT

EXTINCTION WATER CONTENT FOR CELL AT ROW    13, COLUMN     6 IS LESS THAN RESIDUAL WATER CONTENT-- SETTING EXTINCTION WATER CONTENT EQUAL TO RESIDUAL WATER CONTENT

EXTINCTION WATER CONTENT FOR CELL AT ROW    13, COLUMN     7 IS LESS THAN RESIDUAL WATER CONTENT-- SETTING EXTINCTION WATER CONTENT EQUAL TO RESIDUAL WATER CONTENT

EXTINCTION WATER CONTENT FOR CELL AT ROW    13, COLUMN     8 IS LESS THAN RESIDUAL WATER CONTENT-- SETTING EXTINCTION WATER CONTENT EQUAL TO RESIDUAL WATER CONTENT

EXTINCTION WATER CONTENT FOR CELL AT ROW    13, COLUMN     9 IS LESS THAN RESIDUAL WATER CONTENT-- SETTING EXTINCTION WATER CONTENT EQUAL TO RESIDUAL WATER CONTENT

EXTINCTION WATER CONTENT FOR CELL AT ROW    14, COLUMN     2 IS LESS THAN RESIDUAL WATER CONTENT-- SETTING EXTINCTION WATER CONTENT EQUAL TO RESIDUAL WATER CONTENT

EXTINCTION WATER CONTENT FOR CELL AT ROW    14, COLUMN     3 IS LESS THAN RESIDUAL WATER CONTENT-- SETTING EXTINCTION WATER CONTENT EQUAL TO RESIDUAL WATER CONTENT

EXTINCTION WATER CONTENT FOR CELL AT ROW    14, COLUMN     4 IS LESS THAN RESIDUAL WATER CONTENT-- SETTING EXTINCTION WATER CONTENT EQUAL TO RESIDUAL WATER CONTENT

EXTINCTION WATER CONTENT FOR CELL AT ROW    14, COLUMN     5 IS LESS THAN RESIDUAL WATER CONTENT-- SETTING EXTINCTION WATER CONTENT EQUAL TO RESIDUAL WATER CONTENT

EXTINCTION WATER CONTENT FOR CELL AT ROW    14, COLUMN     6 IS LESS THAN RESIDUAL WATER CONTENT-- SETTING EXTINCTION WATER CONTENT EQUAL TO RESIDUAL WATER CONTENT

EXTINCTION WATER CONTENT FOR CELL AT ROW    14, COLUMN     7 IS LESS THAN RESIDUAL WATER CONTENT-- SETTING EXTINCTION WATER CONTENT EQUAL TO RESIDUAL WATER CONTENT

EXTINCTION WATER CONTENT FOR CELL AT ROW    14, COLUMN     8 IS LESS THAN RESIDUAL WATER CONTENT-- SETTING EXTINCTION WATER CONTENT EQUAL TO RESIDUAL WATER CONTENT

EXTINCTION WATER CONTENT FOR CELL AT ROW    14, COLUMN     9 IS LESS THAN RESIDUAL WATER CONTENT-- SETTING EXTINCTION WATER CONTENT EQUAL TO RESIDUAL WATER CONTENT

EXTINCTION WATER CONTENT FOR CELL AT ROW    15, COLUMN     3 IS LESS THAN RESIDUAL WATER CONTENT-- SETTING EXTINCTION WATER CONTENT EQUAL TO RESIDUAL WATER CONTENT

EXTINCTION WATER CONTENT FOR CELL AT ROW    15, COLUMN     4 IS LESS THAN RESIDUAL WATER CONTENT-- SETTING EXTINCTION WATER CONTENT EQUAL TO RESIDUAL WATER CONTENT

EXTINCTION WATER CONTENT FOR CELL AT ROW    15, COLUMN     5 IS LESS THAN RESIDUAL WATER CONTENT-- SETTING EXTINCTION WATER CONTENT EQUAL TO RESIDUAL WATER CONTENT

EXTINCTION WATER CONTENT FOR CELL AT ROW    15, COLUMN     6 IS LESS THAN RESIDUAL WATER CONTENT-- SETTING EXTINCTION WATER CONTENT EQUAL TO RESIDUAL WATER CONTENT

       AIR ENTRY PRESSURE =  -1.10000    

            ROOT PRESSURE =  -75.0000    

            ROOT ACTIVITY =   1.00000    
 # AG segment list

 PROCESSING SEGMENT LIST

 FINISHED READING SEGMENT LIST
 # AG well list

 PROCESSING WELL LIST

 LAYER   ROW   COL   MAX STRESS RATE         
 --------------------------------------------
      1      1      6      4      -100.0    
      2      1      6      5      -100.0    
      3      1      7      4      -100.0    
      4      1      7      5      -100.0    
      5      1      8      4      -100.0    
      6      1      8      5      -100.0    

 FINISHED READING WELL LIST

      6 WELLS

 PROCESSING AG STRESS PERIOD DATA
 # AG stress period

 READING AG STRESS PERIOD DATA

 READING IRRIGATION SEGMENT

 READING IRRIGATION WELL

 READING SUPPLEMENTAL WELL

 END PROCESSING AG STRESS PERIOD DATA OPTIONS
 
 SOLVING FOR HEAD 
                                                   Max.-Head-Change                         Max.-Flux-Residual
  Residual-Control   Outer-Iter.   Inner-Iter.     Column Row Layer    Maximum-Head-Change  Column Row Layer    Maximum-Flux-Residual          L2-NORM 
          0                 1           6             2    2     1      -0.3091902076E+02       3    3    1        -0.3387725593E+01      0.9438782903E+01
          0                 2           6             1    1     1      -0.3160283285E+02       1   13    1        -0.6317714513E+02      0.6341706167E+02
          0                 3           5             1    1     1      -0.1218344615E+01       1   13    1        -0.2090503782E+01      0.2852988571E+01
          0                 4           5             5   13     1      -0.3531913066E+00       5   13    1        -0.5902045538E+00      0.6060815874E+00
          0                 5           4             5   14     1       0.5787736087E-01       5   13    1         0.2547334864E-01      0.4765464180E-01
          0                 6           2             5   14     1      -0.2238408348E-02       5   12    1        -0.2373336474E-02      0.3893753341E-02
          0                 7           1             5   12     1       0.4404395645E-04       5   12    1         0.1191690449E-03      0.1657812993E-03

    ------------------------------------------------
       NWT REQUIRED            7 OUTER ITERATIONS 
       AND A TOTAL OF         29 INNER ITERATIONS.
    ------------------------------------------------

 OUTPUT CONTROL FOR STRESS PERIOD    1   TIME STEP    1
    PRINT BUDGET
    PRINT HEAD FOR ALL LAYERS
    SAVE BUDGET
    SAVE HEAD FOR ALL LAYERS
 UBDSV2 SAVING "   CONSTANT HEAD" ON UNIT 102 AT TIME STEP  1, STRESS PERIOD   1
 UBDSV1 SAVING "FLOW RIGHT FACE " ON UNIT 102 AT TIME STEP  1, STRESS PERIOD   1
 UBDSV1 SAVING "FLOW FRONT FACE " ON UNIT 102 AT TIME STEP  1, STRESS PERIOD   1

  HEAD DEP BOUNDS   PERIOD    1   STEP     1
 BOUNDARY      1   LAYER   1   ROW    13   COL     1   RATE   -0.286536    
 BOUNDARY      2   LAYER   1   ROW    14   COL     9   RATE    0.287755    



 STREAM LISTING     PERIOD      1   STEP        1

 LAYER ROW COL. STREAM  RCH.  FLOW INTO     FLOW TO   FLOW OUT OF   OVRLND.     DIRECT     STREAM       STREAM     STREAM     STREAM   STREAMBED  STREAMBED
                SEG.NO.  NO.  STRM. RCH.    AQUIFER    STRM. RCH.    RUNOFF     PRECIP       ET          HEAD       DEPTH      WIDTH   CONDCTNC.   GRADIENT

   1    1    1     1     1    1.8750E+00  6.5285E-02   1.8097E+00  0.000E+00  0.000E+00  0.000E+00  1.09358E+03  5.296E-01  4.110E+00  1.850E-02  1.177E+00
   1    2    2     1     2    1.8097E+00  1.0002E-01   1.7097E+00  0.000E+00  0.000E+00  0.000E+00  1.08858E+03  5.186E-01  4.061E+00  2.843E-02  1.173E+00
   1    3    3     1     3    1.7097E+00  8.4225E-02   1.6255E+00  0.000E+00  0.000E+00  0.000E+00  1.08292E+03  5.059E-01  4.004E+00  2.402E-02  1.169E+00
   1    3    4     1     4    1.6255E+00  7.6652E-02   1.5488E+00  0.000E+00  0.000E+00  0.000E+00  1.07790E+03  4.946E-01  3.952E+00  2.193E-02  1.165E+00
   1    4    5     2     1    0.0000E+00  0.0000E+00   0.0000E+00  0.000E+00  0.000E+00  0.000E+00  1.07193E+03  0.000E+00  1.200E+01  7.800E-02  1.000E+00
   1    5    6     2     2    0.0000E+00  0.0000E+00   0.0000E+00  0.000E+00  0.000E+00  0.000E+00  1.06651E+03  0.000E+00  1.200E+01  6.000E-02  1.000E+00
   1    6    6     2     3    0.0000E+00  0.0000E+00   0.0000E+00  0.000E+00  0.000E+00  0.000E+00  1.06179E+03  0.000E+00  1.200E+01  6.000E-02  1.000E+00
   1    7    6     2     4    0.0000E+00  0.0000E+00   0.0000E+00  0.000E+00  0.000E+00  0.000E+00  1.05708E+03  0.000E+00  1.200E+01  6.000E-02  1.000E+00
   1    8    6     2     5    0.0000E+00  0.0000E+00   0.0000E+00  0.000E+00  0.000E+00  0.000E+00  1.05236E+03  0.000E+00  1.200E+01  6.000E-02  1.000E+00
   1    3    5     3     1    1.5488E+00  2.8252E-01   1.2663E+00  0.000E+00  0.000E+00  0.000E+00  1.07555E+03  1.909E+00  9.636E+00  7.227E-02  1.955E+00
   1    3    6     3     2    1.2663E+00  2.4905E-01   1.0172E+00  0.000E+00  0.000E+00  0.000E+00  1.07264E+03  1.727E+00  8.909E+00  6.682E-02  1.864E+00
   1    3    7     3     3    1.0172E+00  1.9718E-01   8.2007E-01  0.000E+00  0.000E+00  0.000E+00  1.06987E+03  1.555E+00  8.218E+00  5.547E-02  1.777E+00
   1    4    8     3     4    8.2007E-01  2.2567E-01   5.9440E-01  0.000E+00  0.000E+00  0.000E+00  1.06682E+03  1.364E+00  7.455E+00  6.709E-02  1.682E+00
   1    5    8     3     5    5.9440E-01  1.5790E-01   4.3650E-01  0.000E+00  0.000E+00  0.000E+00  1.06362E+03  1.164E+00  6.655E+00  4.991E-02  1.582E+00
   1    6    8     3     6    4.3650E-01  5.5980E-02   3.8052E-01  0.000E+00  0.000E+00  0.000E+00  1.06158E+03  1.036E+00  6.145E+00  1.844E-02  1.518E+00
   1    5   10     4     1    1.0000E+01  9.0919E-02   9.9091E+00  0.000E+00  0.000E+00  0.000E+00  1.07836E+03  6.368E-01  1.000E+01  2.500E-02  1.212E+00
   1    5    9     4     2    9.9091E+00  1.8158E-01   9.7275E+00  0.000E+00  0.000E+00  0.000E+00  1.07154E+03  6.315E-01  1.000E+01  5.000E-02  1.211E+00
   1    6    8     4     3    9.7275E+00  1.2689E-01   9.6006E+00  0.000E+00  0.000E+00  0.000E+00  1.06381E+03  6.256E-01  1.000E+01  3.500E-02  1.209E+00
   1    6    8     5     1    9.9811E+00  2.2027E-01   9.7609E+00  0.000E+00  0.000E+00  0.000E+00  1.05867E+03  6.686E-01  1.501E+01  6.004E-02  1.223E+00
   1    7    7     5     2    9.7609E+00  2.7078E-01   9.4901E+00  0.000E+00  0.000E+00  0.000E+00  1.05416E+03  6.627E-01  1.479E+01  7.393E-02  1.221E+00
   1    8    7     5     3    9.4901E+00  1.8654E-01   9.3035E+00  0.000E+00  0.000E+00  0.000E+00  1.04991E+03  6.571E-01  1.457E+01  5.101E-02  1.219E+00
   1    8    6     5     4    9.3035E+00  1.3175E-01   9.1718E+00  0.000E+00  0.000E+00  0.000E+00  1.04690E+03  6.532E-01  1.443E+01  3.606E-02  1.218E+00
   1    9    6     6     1    9.1718E+00  2.1985E-01   8.9519E+00  0.000E+00  0.000E+00  0.000E+00  1.04339E+03  6.642E-01  1.200E+01  6.000E-02  1.221E+00
   1   10    7     6     2    8.9519E+00  2.1927E-01   8.7327E+00  0.000E+00  0.000E+00  0.000E+00  1.03884E+03  6.545E-01  1.200E+01  6.000E-02  1.218E+00
   1   11    7     6     3    8.7327E+00  2.1868E-01   8.5140E+00  0.000E+00  0.000E+00  0.000E+00  1.03428E+03  6.447E-01  1.200E+01  6.000E-02  1.215E+00
   1   12    7     6     4    8.5140E+00  2.1809E-01   8.2959E+00  0.000E+00  0.000E+00  0.000E+00  1.02973E+03  6.349E-01  1.200E+01  6.000E-02  1.212E+00
   1   13    7     6     5    8.2959E+00 -6.5708E-02   8.3616E+00  0.000E+00  0.000E+00  0.000E+00  1.02654E+03  6.314E-01  1.200E+01  2.400E-01 -9.126E-02
   1   14    9     7     1    1.5000E+02  1.3651E+00   1.4863E+02  0.000E+00  0.000E+00  0.000E+00  1.03987E+03  2.288E+00  5.529E+01  5.593E-01  8.136E-01
   1   13    8     7     2    1.4863E+02  1.9205E+00   1.4671E+02  0.000E+00  0.000E+00  0.000E+00  1.03478E+03  2.279E+00  5.526E+01  6.148E-01  1.041E+00
   1   13    7     7     3    1.4671E+02  1.6052E+00   1.4511E+02  0.000E+00  0.000E+00  0.000E+00  1.02969E+03  2.269E+00  5.521E+01  5.584E-01  9.582E-01
   1   13    6     8     1    1.5347E+02  9.5026E-01   1.5252E+02  0.000E+00  0.000E+00  0.000E+00  1.02471E+03  2.838E+00  4.115E+01  4.193E-01  7.554E-01
   1   13    5     8     2    1.5252E+02  2.1144E-01   1.5231E+02  0.000E+00  0.000E+00  0.000E+00  1.01846E+03  2.834E+00  4.109E+01  4.187E-01  1.683E-01
   1   13    4     8     3    1.5231E+02 -2.3074E+00   1.5462E+02  0.000E+00  0.000E+00  0.000E+00  1.01222E+03  2.841E+00  4.120E+01  4.198E+00 -1.832E-01
   1   13    3     8     4    1.5462E+02 -3.5750E+00   1.5819E+02  0.000E+00  0.000E+00  0.000E+00  1.00599E+03  2.861E+00  4.149E+01  4.228E+00 -2.819E-01
   1   13    2     8     5    1.5819E+02 -2.5597E+00   1.6075E+02  0.000E+00  0.000E+00  0.000E+00  9.99757E+02  2.882E+00  4.179E+01  4.259E+00 -2.003E-01
   1   13    1     8     6    1.6075E+02 -1.9726E+00   1.6272E+02  0.000E+00  0.000E+00  0.000E+00  9.94773E+02  2.898E+00  4.201E+01  2.569E+00 -2.560E-01
   1    8    6     9     1    0.0000E+00  0.0000E+00   0.0000E+00  0.000E+00  0.000E+00  0.000E+00  1.07875E+03  0.000E+00  4.000E+00  0.000E+00  1.000E+00
   1    8    5     9     2    0.0000E+00  0.0000E+00   0.0000E+00  0.000E+00  0.000E+00  0.000E+00  1.07825E+03  0.000E+00  4.000E+00  0.000E+00  1.000E+00



 UBDSV3 SAVING "           GW ET" ON UNIT  61 AT TIME STEP  1, STRESS PERIOD   1
 UBDSV3 SAVING "    UZF RECHARGE" ON UNIT  61 AT TIME STEP  1, STRESS PERIOD   1
 UBDSV3 SAVING " SURFACE LEAKAGE" ON UNIT  61 AT TIME STEP  1, STRESS PERIOD   1
 UBDSV3 SAVING "       HORT+DUNN" ON UNIT  61 AT TIME STEP  1, STRESS PERIOD   1
 UBDSV3 SAVING "  STORAGE CHANGE" ON UNIT  61 AT TIME STEP  1, STRESS PERIOD   1


UNSATURATED ZONE PACKAGE VOLUMETRIC BUDGET FOR  TIME STEP     1 STRESS PERIOD    1
  ------------------------------------------------------------------------------



     CUMULATIVE VOLUMES      L**3       RATES FOR THIS TIME STEP      L**3/T
     ------------------                 ------------------------

           IN:                                      IN:
           ---                                      ---
        INFILTRATION =       73224.0000          INFILTRATION =           0.8475

          OUT:                                     OUT:
          ----                                     ----
              UZF ET =       0.0000E+00                UZF ET =       0.0000E+00
        UZF RECHARGE =       73224.0000          UZF RECHARGE =           0.8475

            IN - OUT =       0.0000E+00              IN - OUT =       0.0000E+00

          STORAGE:                                 STORAGE:
          --------                                 --------
      STORAGE CHANGE =       0.0000E+00        STORAGE CHANGE =       0.0000E+00

 PERCENT DISCREPANCY IS DIFFERENCE BETWEEN IN-OUT MINUS CHANGE IN STORAGE
 DIVIDED BY THE AVERAGE OF IN AND OUT TIMES 100

 PERCENT DISCREPANCY =           0.00     PERCENT DISCREPANCY =           0.00






 

            AG WELLS      PERIOD    1   STEP   1
 AG WELL      1   LAYER   1   ROW     6   COL     4   RATE     0.00000    
 AG WELL      2   LAYER   1   ROW     6   COL     5   RATE     0.00000    
 AG WELL      3   LAYER   1   ROW     7   COL     4   RATE     0.00000    
 AG WELL      4   LAYER   1   ROW     7   COL     5   RATE     0.00000    
 AG WELL      5   LAYER   1   ROW     8   COL     4   RATE     0.00000    
 AG WELL      6   LAYER   1   ROW     8   COL     5   RATE     0.00000    
 
 

   DIVERSION SEGMENTS     PERIOD    1   STEP   1
 
 

        SW IRRIGATION     PERIOD    1   STEP   1
 
 

        GW IRRIGATION     PERIOD    1   STEP   1
 
1
  VOLUMETRIC BUDGET FOR AGRICULTURAL FIELDS AT  END OF TIME STEP    1, STRESS PERIOD   1
  ------------------------------------------------------------------------------

     CUMULATIVE VOLUMES      L**3       RATES FOR THIS TIME STEP      L**3/T
     ------------------                 ------------------------

           IN:                                      IN:
           ---                                      ---
               AG WELLS  =           0.0000                 AG WELLS  =           0.0000
      DIVERSION SEGMENTS =           0.0000        DIVERSION SEGMENTS =           0.0000
           GW IRRIGATION =           0.0000             GW IRRIGATION =           0.0000
           SW IRRIGATION =           0.0000             SW IRRIGATION =           0.0000
        SYSTEM LOSSES GW =           0.0000          SYSTEM LOSSES GW =           0.0000
        SYSTEM LOSSES SW =           0.0000          SYSTEM LOSSES SW =           0.0000

                TOTAL IN =           0.0000                  TOTAL IN =           0.0000

          OUT:                                     OUT:
          ----                                     ----
               AG WELLS  =           0.0000                 AG WELLS  =           0.0000
      DIVERSION SEGMENTS =           0.0000        DIVERSION SEGMENTS =           0.0000
           GW IRRIGATION =           0.0000             GW IRRIGATION =           0.0000
           SW IRRIGATION =           0.0000             SW IRRIGATION =           0.0000
        SYSTEM LOSSES GW =           0.0000          SYSTEM LOSSES GW =           0.0000
        SYSTEM LOSSES SW =           0.0000          SYSTEM LOSSES SW =           0.0000

               TOTAL OUT =           0.0000                 TOTAL OUT =           0.0000

                IN - OUT =           0.0000                  IN - OUT =           0.0000

     PERCENT DISCREPANCY =           0.00         PERCENT DISCREPANCY =           0.00



1
              HEAD IN LAYER   1 AT END OF TIME STEP   1 IN STRESS PERIOD    1
  ---------------------------------------------------------------------------

           1       2       3       4       5       6       7       8       9      10
 ...................................................................................
   1  1029.26 1028.37 6999.00 6999.00 6999.00 6999.00 6999.00 6999.00 6999.00 6999.00
   2  1028.45 1027.36 1026.88 6999.00 6999.00 1028.30 1028.48 1028.46 6999.00 6999.00
   3  6999.00 1026.66 1026.39 1026.21 1026.77 1027.48 1028.04 1028.04 6999.00 6999.00
   4  1026.25 1026.11 1025.89 1025.72 1025.72 1025.86 1026.44 1027.58 1027.34 6999.00
   5  1025.90 1025.50 1025.30 1025.20 1025.26 1025.43 1025.71 1026.26 1026.91 1027.46
   6  1025.46 1024.92 1024.71 1024.66 1024.75 1024.99 1025.37 1025.92 1026.38 1027.29
   7  1025.06 1024.16 1023.99 1024.01 1024.15 1024.46 1024.94 1025.38 1025.92 6999.00
   8  6999.00 1023.02 1023.05 1023.19 1023.40 1023.81 1024.28 1024.92 1025.60 6999.00
   9  6999.00 1021.31 1021.62 1022.06 1022.44 1023.05 1023.57 1024.31 1025.54 6999.00
  10  6999.00 1018.82 1019.57 1020.57 1021.33 1022.32 1023.23 1024.33 1025.99 1026.64
  11  6999.00 1014.68 1016.10 1018.53 1020.11 1021.81 1023.34 1025.18 1027.44 6999.00
  12  1001.77 1007.67 1011.76 1015.60 1018.78 1021.71 1024.22 1027.74 1030.81 6999.00
  13   995.54 1000.36 1006.83 1012.77 1017.95 1022.45 1026.81 1031.65 1034.50 6999.00
  14  6999.00 1005.73 1008.80 1013.40 1018.06 1022.43 1027.39 1032.95 1037.43 6999.00
  15  6999.00 6999.00 1012.40 1015.08 1018.50 1021.48 6999.00 6999.00 6999.00 6999.00

 HEAD WILL BE SAVED ON UNIT   62 AT END OF TIME STEP    1, STRESS PERIOD    1
1
  VOLUMETRIC BUDGET FOR ENTIRE MODEL AT END OF TIME STEP    1, STRESS PERIOD   1
  ------------------------------------------------------------------------------

     CUMULATIVE VOLUMES      L**3       RATES FOR THIS TIME STEP      L**3/T
     ------------------                 ------------------------

           IN:                                      IN:
           ---                                      ---
             STORAGE     =           0.0000               STORAGE     =           0.0000
       CONSTANT HEAD     =           0.0000         CONSTANT HEAD     =           0.0000
     HEAD DEP BOUNDS     =       24862.0605       HEAD DEP BOUNDS     =           0.2878
      STREAM LEAKAGE     =      832172.8125        STREAM LEAKAGE     =           9.6316
        UZF RECHARGE     =       73223.9531          UZF RECHARGE     =           0.8475
               GW ET     =           0.0000                 GW ET     =           0.0000
     SURFACE LEAKAGE     =           0.0000       SURFACE LEAKAGE     =           0.0000
           AG WELLS      =           0.0000             AG WELLS      =           0.0000

                TOTAL IN =      930258.8125                  TOTAL IN =          10.7669

          OUT:                                     OUT:
          ----                                     ----
             STORAGE     =           0.0000               STORAGE     =           0.0000
       CONSTANT HEAD     =           0.0000         CONSTANT HEAD     =           0.0000
     HEAD DEP BOUNDS     =       24756.7500       HEAD DEP BOUNDS     =           0.2865
      STREAM LEAKAGE     =      905501.8750        STREAM LEAKAGE     =          10.4803
        UZF RECHARGE     =           0.0000          UZF RECHARGE     =           0.0000
               GW ET     =           0.0000                 GW ET     =           0.0000
     SURFACE LEAKAGE     =           0.0000       SURFACE LEAKAGE     =           0.0000
           AG WELLS      =           0.0000             AG WELLS      =           0.0000

               TOTAL OUT =      930258.6250                 TOTAL OUT =          10.7669

                IN - OUT =           0.1875                  IN - OUT =       2.8610E-06

     PERCENT DISCREPANCY =           0.00         PERCENT DISCREPANCY =           0.00






         TIME SUMMARY AT END OF TIME STEP    1 IN STRESS PERIOD    1
                    SECONDS     MINUTES      HOURS       DAYS        YEARS
                    -----------------------------------------------------------
   TIME STEP LENGTH  86400.      1440.0      24.000      1.0000     2.73785E-03
 STRESS PERIOD TIME  86400.      1440.0      24.000      1.0000     2.73785E-03
         TOTAL TIME  86400.      1440.0      24.000      1.0000     2.73785E-03
1
1
                            STRESS PERIOD NO.    2, LENGTH =   2630000.    
                            -----------------------------------------------

                              NUMBER OF TIME STEPS =    30

                               MULTIPLIER FOR DELT =     1.000

                            INITIAL TIME STEP SIZE =   87666.66    

 REUSING NON-PARAMETER GHB CELLS FROM LAST STRESS PERIOD

      2 GHB CELLS

 REUSING STREAM SEGMENT DATA FROM LAST STRESS PERIOD



            AREAL INFILTRATION RATE
 READING ON UNIT   19 WITH FORMAT: (10F4.0)            

            1           2           3           4           5           6           7           8           9          10
 ........................................................................................................................
   1   1.2000E-09   0.000       0.000       0.000       0.000       0.000       0.000       0.000       0.000       0.000    
   2   2.1000E-09  2.0000E-09  8.0000E-10  8.5000E-09   0.000       0.000       0.000       0.000       0.000       0.000    
   3   5.0000E-10  1.1000E-09  8.8000E-09  5.5000E-09   0.000       0.000       0.000       0.000       0.000       0.000    
   4   8.5000E-09  1.1000E-09  1.1000E-09  1.1000E-09  2.0000E-09   0.000       0.000       0.000       0.000       0.000    
   5   8.5000E-09  1.1000E-09  1.1000E-09  1.1000E-09  1.1000E-09   0.000       0.000       0.000       0.000       0.000    
   6   8.5000E-09  5.2000E-09  2.1000E-09  1.1000E-09  1.5000E-09   0.000       0.000       0.000       0.000       0.000    
   7   8.5000E-09  5.2000E-09  2.1000E-09  1.2000E-09  2.0000E-09   0.000       0.000       0.000       0.000       0.000    
   8   5.0000E-10  5.2000E-09  2.1000E-09  1.2000E-09  5.0000E-09   0.000       0.000       0.000       0.000       0.000    
   9   5.0000E-10  5.2000E-09  2.1000E-09  1.2000E-09  5.0000E-09   0.000       0.000       0.000       0.000       0.000    
  10   5.0000E-10  5.2000E-09  2.1000E-09  1.2000E-09  5.8000E-09   0.000       0.000       0.000       0.000       0.000    
  11   1.0000E-10  1.1000E-09  1.1000E-09  1.2000E-09  5.0000E-09   0.000       0.000       0.000       0.000       0.000    
  12   1.1000E-09  1.1000E-09  1.1000E-09  1.1000E-09  2.0000E-09   0.000       0.000       0.000       0.000       0.000    
  13   1.1000E-09  2.2000E-09  2.2000E-09  2.1000E-09  1.0000E-09   0.000       0.000       0.000       0.000       0.000    
  14   2.0000E-10  5.5000E-09  5.5000E-09  5.2000E-09  1.0000E-09   0.000       0.000       0.000       0.000       0.000    
  15    0.000      8.8000E-09  8.8000E-09   0.000       0.000       0.000       0.000       0.000       0.000       0.000    

                  ET RATE =  5.000000E-10

 USING ET EXTINCTION DEPTH FROM PREVIOUS STRESS PERIOD. CURRENT PERIOD IS:       2

 USING EXTINCTION WATER CONTENT FROM PREVIOUS STRESS PERIOD. CURRENT PERIOD IS:       2

 USING AIR ENTRY PRESSURE FROM PREVIOUS STRESS PERIOD. CURRENT PERIOD IS:       2

 USING ROOT PRESSURE HEAD FROM PREVIOUS STRESS PERIOD. CURRENT PERIOD IS:       2

 USING ROOT ACTIVITY FROM PREVIOUS STRESS PERIOD. CURRENT PERIOD IS:       2

 PROCESSING AG STRESS PERIOD DATA

 READING AG STRESS PERIOD DATA

 READING IRRIGATION SEGMENT

 READING IRRIGATION WELL

 READING SUPPLEMENTAL WELL

 END PROCESSING AG STRESS PERIOD DATA OPTIONS
 
 SOLVING FOR HEAD 
                                                   Max.-Head-Change                         Max.-Flux-Residual
  Residual-Control   Outer-Iter.   Inner-Iter.     Column Row Layer    Maximum-Head-Change  Column Row Layer    Maximum-Flux-Residual          L2-NORM 
          0                 1           2             5    4     1       0.4971666983E-02       5    4    1         0.2692751545E+00      0.5607056842E+00
          0                 2           2             5    4     1      -0.4836091141E-03       5    4    1        -0.2692761862E-01      0.5590529324E-01
          0                 3           1             5    4     1       0.3293196866E-04       5    4    1         0.1884933145E-02      0.3898364406E-02

    ------------------------------------------------
       NWT REQUIRED            3 OUTER ITERATIONS 
       AND A TOTAL OF          5 INNER ITERATIONS.
    ------------------------------------------------

 OUTPUT CONTROL FOR STRESS PERIOD    2   TIME STEP    1
    PRINT BUDGET
    PRINT HEAD FOR ALL LAYERS
    SAVE BUDGET
 UBDSV1 SAVING "         STORAGE" ON UNIT 102 AT TIME STEP  1, STRESS PERIOD   2
 UBDSV2 SAVING "   CONSTANT HEAD" ON UNIT 102 AT TIME STEP  1, STRESS PERIOD   2
 UBDSV1 SAVING "FLOW RIGHT FACE " ON UNIT 102 AT TIME STEP  1, STRESS PERIOD   2
 UBDSV1 SAVING "FLOW FRONT FACE " ON UNIT 102 AT TIME STEP  1, STRESS PERIOD   2

  HEAD DEP BOUNDS   PERIOD    2   STEP     1
 BOUNDARY      1   LAYER   1   ROW    13   COL     1   RATE   -0.286571    
 BOUNDARY      2   LAYER   1   ROW    14   COL     9   RATE    0.287757    



 STREAM LISTING     PERIOD      2   STEP        1

 LAYER ROW COL. STREAM  RCH.  FLOW INTO     FLOW TO   FLOW OUT OF   OVRLND.     DIRECT     STREAM       STREAM     STREAM     STREAM   STREAMBED  STREAMBED
                SEG.NO.  NO.  STRM. RCH.    AQUIFER    STRM. RCH.    RUNOFF     PRECIP       ET          HEAD       DEPTH      WIDTH   CONDCTNC.   GRADIENT

   1    1    1     1     1    8.2500E+00  1.3178E-01   8.1182E+00  0.000E+00  0.000E+00  0.000E+00  1.09389E+03  8.424E-01  7.622E+00  3.430E-02  1.281E+00
   1    2    2     1     2    8.1182E+00  2.0240E-01   7.9158E+00  0.000E+00  0.000E+00  0.000E+00  1.08890E+03  8.367E-01  7.536E+00  5.276E-02  1.279E+00
   1    3    3     1     3    7.9158E+00  1.7099E-01   7.7448E+00  0.000E+00  0.000E+00  0.000E+00  1.08325E+03  8.302E-01  7.440E+00  4.464E-02  1.277E+00
   1    3    4     1     4    7.7448E+00  1.5612E-01   7.5887E+00  0.000E+00  0.000E+00  0.000E+00  1.07823E+03  8.244E-01  7.355E+00  4.082E-02  1.275E+00
   1    4    5     2     1    5.5887E+00  2.7178E-01   5.3169E+00  0.000E+00  0.000E+00  0.000E+00  1.07242E+03  4.843E-01  1.200E+01  7.800E-02  1.161E+00
   1    5    6     2     2    5.3169E+00  2.0828E-01   5.1086E+00  0.000E+00  0.000E+00  0.000E+00  1.06698E+03  4.714E-01  1.200E+01  6.000E-02  1.157E+00
   1    6    6     2     3    5.1086E+00  2.0760E-01   4.9010E+00  0.000E+00  0.000E+00  0.000E+00  1.06225E+03  4.600E-01  1.200E+01  6.000E-02  1.153E+00
   1    7    6     2     4    4.9010E+00  2.0691E-01   4.6941E+00  0.000E+00  0.000E+00  0.000E+00  1.05752E+03  4.485E-01  1.200E+01  6.000E-02  1.149E+00
   1    8    6     2     5    4.6941E+00  2.0621E-01   4.4879E+00  0.000E+00  0.000E+00  0.000E+00  1.05280E+03  4.368E-01  1.200E+01  6.000E-02  1.146E+00
   1    3    5     3     1    2.0000E+00  2.8252E-01   1.7175E+00  0.000E+00  0.000E+00  0.000E+00  1.07555E+03  1.909E+00  9.636E+00  7.227E-02  1.955E+00
   1    3    6     3     2    1.7175E+00  2.4905E-01   1.4684E+00  0.000E+00  0.000E+00  0.000E+00  1.07264E+03  1.727E+00  8.909E+00  6.682E-02  1.864E+00
   1    3    7     3     3    1.4684E+00  1.9718E-01   1.2712E+00  0.000E+00  0.000E+00  0.000E+00  1.06987E+03  1.555E+00  8.218E+00  5.547E-02  1.777E+00
   1    4    8     3     4    1.2712E+00  2.2567E-01   1.0456E+00  0.000E+00  0.000E+00  0.000E+00  1.06682E+03  1.364E+00  7.455E+00  6.709E-02  1.682E+00
   1    5    8     3     5    1.0456E+00  1.5790E-01   8.8768E-01  0.000E+00  0.000E+00  0.000E+00  1.06362E+03  1.164E+00  6.655E+00  4.991E-02  1.582E+00
   1    6    8     3     6    8.8768E-01  5.5980E-02   8.3170E-01  0.000E+00  0.000E+00  0.000E+00  1.06158E+03  1.036E+00  6.145E+00  1.844E-02  1.518E+00
   1    5   10     4     1    1.0000E+01  9.0919E-02   9.9091E+00  0.000E+00  0.000E+00  0.000E+00  1.07836E+03  6.368E-01  1.000E+01  2.500E-02  1.212E+00
   1    5    9     4     2    9.9091E+00  1.8158E-01   9.7275E+00  0.000E+00  0.000E+00  0.000E+00  1.07154E+03  6.315E-01  1.000E+01  5.000E-02  1.211E+00
   1    6    8     4     3    9.7275E+00  1.2689E-01   9.6006E+00  0.000E+00  0.000E+00  0.000E+00  1.06381E+03  6.256E-01  1.000E+01  3.500E-02  1.209E+00
   1    6    8     5     1    1.0432E+01  2.2686E-01   1.0205E+01  0.000E+00  0.000E+00  0.000E+00  1.05868E+03  6.790E-01  1.542E+01  6.166E-02  1.226E+00
   1    7    7     5     2    1.0205E+01  2.7894E-01   9.9265E+00  0.000E+00  0.000E+00  0.000E+00  1.05417E+03  6.732E-01  1.519E+01  7.594E-02  1.224E+00
   1    8    7     5     3    9.9265E+00  1.9221E-01   9.7343E+00  0.000E+00  0.000E+00  0.000E+00  1.04992E+03  6.676E-01  1.497E+01  5.241E-02  1.223E+00
   1    8    6     5     4    9.7343E+00  1.3577E-01   9.5985E+00  0.000E+00  0.000E+00  0.000E+00  1.04691E+03  6.637E-01  1.482E+01  3.706E-02  1.221E+00
   1    9    6     6     1    1.4086E+01  2.3167E-01   1.3855E+01  0.000E+00  0.000E+00  0.000E+00  1.04359E+03  8.612E-01  1.200E+01  6.000E-02  1.287E+00
   1   10    7     6     2    1.3855E+01  2.3116E-01   1.3624E+01  0.000E+00  0.000E+00  0.000E+00  1.03903E+03  8.526E-01  1.200E+01  6.000E-02  1.284E+00
   1   11    7     6     3    1.3624E+01  2.3064E-01   1.3393E+01  0.000E+00  0.000E+00  0.000E+00  1.03448E+03  8.440E-01  1.200E+01  6.000E-02  1.281E+00
   1   12    7     6     4    1.3393E+01  2.3012E-01   1.3163E+01  0.000E+00  0.000E+00  0.000E+00  1.02993E+03  8.353E-01  1.200E+01  6.000E-02  1.278E+00
   1   13    7     6     5    1.3163E+01 -1.7911E-02   1.3181E+01  0.000E+00  0.000E+00  0.000E+00  1.02674E+03  8.313E-01  1.200E+01  2.400E-01 -2.488E-02
   1   14    9     7     1    1.5000E+02  1.3652E+00   1.4863E+02  0.000E+00  0.000E+00  0.000E+00  1.03987E+03  2.288E+00  5.529E+01  5.593E-01  8.136E-01
   1   13    8     7     2    1.4863E+02  1.9205E+00   1.4671E+02  0.000E+00  0.000E+00  0.000E+00  1.03478E+03  2.279E+00  5.526E+01  6.148E-01  1.041E+00
   1   13    7     7     3    1.4671E+02  1.6048E+00   1.4511E+02  0.000E+00  0.000E+00  0.000E+00  1.02969E+03  2.269E+00  5.521E+01  5.584E-01  9.579E-01
   1   13    6     8     1    1.5829E+02  9.7525E-01   1.5732E+02  0.000E+00  0.000E+00  0.000E+00  1.02475E+03  2.871E+00  4.163E+01  4.242E-01  7.663E-01
   1   13    5     8     2    1.5732E+02  2.2782E-01   1.5709E+02  0.000E+00  0.000E+00  0.000E+00  1.01849E+03  2.867E+00  4.157E+01  4.236E-01  1.793E-01
   1   13    4     8     3    1.5709E+02 -2.2030E+00   1.5929E+02  0.000E+00  0.000E+00  0.000E+00  1.01225E+03  2.874E+00  4.167E+01  4.246E+00 -1.729E-01
   1   13    3     8     4    1.5929E+02 -3.4860E+00   1.6278E+02  0.000E+00  0.000E+00  0.000E+00  1.00602E+03  2.893E+00  4.195E+01  4.274E+00 -2.718E-01
   1   13    2     8     5    1.6278E+02 -2.4627E+00   1.6524E+02  0.000E+00  0.000E+00  0.000E+00  9.99788E+02  2.913E+00  4.223E+01  4.304E+00 -1.907E-01
   1   13    1     8     6    1.6524E+02 -1.9181E+00   1.6716E+02  0.000E+00  0.000E+00  0.000E+00  9.94802E+02  2.927E+00  4.245E+01  2.595E+00 -2.464E-01
   1    8    6     9     1    0.0000E+00  0.0000E+00   0.0000E+00  0.000E+00  0.000E+00  0.000E+00  1.07875E+03  0.000E+00  4.000E+00  0.000E+00  1.000E+00
   1    8    5     9     2    0.0000E+00  0.0000E+00   0.0000E+00  0.000E+00  0.000E+00  0.000E+00  1.07825E+03  0.000E+00  4.000E+00  0.000E+00  1.000E+00



 UBDSV3 SAVING "           GW ET" ON UNIT  61 AT TIME STEP  1, STRESS PERIOD   2
 UBDSV3 SAVING "    UZF RECHARGE" ON UNIT  61 AT TIME STEP  1, STRESS PERIOD   2
 UBDSV3 SAVING " SURFACE LEAKAGE" ON UNIT  61 AT TIME STEP  1, STRESS PERIOD   2
 UBDSV3 SAVING "       HORT+DUNN" ON UNIT  61 AT TIME STEP  1, STRESS PERIOD   2
 UBDSV3 SAVING "  STORAGE CHANGE" ON UNIT  61 AT TIME STEP  1, STRESS PERIOD   2


UNSATURATED ZONE PACKAGE VOLUMETRIC BUDGET FOR  TIME STEP     1 STRESS PERIOD    2
  ------------------------------------------------------------------------------



     CUMULATIVE VOLUMES      L**3       RATES FOR THIS TIME STEP      L**3/T
     ------------------                 ------------------------

           IN:                                      IN:
           ---                                      ---
        INFILTRATION =      459614.8186          INFILTRATION =           4.4075

          OUT:                                     OUT:
          ----                                     ----
              UZF ET =       63558.2496                UZF ET =           0.7250
        UZF RECHARGE =       73224.0000          UZF RECHARGE =       0.0000E+00

            IN - OUT =      322832.5690              IN - OUT =           3.6825

          STORAGE:                                 STORAGE:
          --------                                 --------
      STORAGE CHANGE =      322832.5674        STORAGE CHANGE =           3.6825

 PERCENT DISCREPANCY IS DIFFERENCE BETWEEN IN-OUT MINUS CHANGE IN STORAGE
 DIVIDED BY THE AVERAGE OF IN AND OUT TIMES 100

 PERCENT DISCREPANCY =           0.00     PERCENT DISCREPANCY =           0.00






 

            AG WELLS      PERIOD    2   STEP   1
 AG WELL      1   LAYER   1   ROW     6   COL     4   RATE     0.00000    
 AG WELL      2   LAYER   1   ROW     6   COL     5   RATE     0.00000    
 AG WELL      3   LAYER   1   ROW     7   COL     4   RATE     0.00000    
 AG WELL      4   LAYER   1   ROW     7   COL     5   RATE     0.00000    
 AG WELL      5   LAYER   1   ROW     8   COL     4   RATE     0.00000    
 AG WELL      6   LAYER   1   ROW     8   COL     5   RATE     0.00000    
 
 

   DIVERSION SEGMENTS     PERIOD    2   STEP   1
 
 

        SW IRRIGATION     PERIOD    2   STEP   1
 
 

        GW IRRIGATION     PERIOD    2   STEP   1
 
1
  VOLUMETRIC BUDGET FOR AGRICULTURAL FIELDS AT  END OF TIME STEP    1, STRESS PERIOD   2
  ------------------------------------------------------------------------------

     CUMULATIVE VOLUMES      L**3       RATES FOR THIS TIME STEP      L**3/T
     ------------------                 ------------------------

           IN:                                      IN:
           ---                                      ---
               AG WELLS  =           0.0000                 AG WELLS  =           0.0000
      DIVERSION SEGMENTS =           0.0000        DIVERSION SEGMENTS =           0.0000
           GW IRRIGATION =           0.0000             GW IRRIGATION =           0.0000
           SW IRRIGATION =           0.0000             SW IRRIGATION =           0.0000
        SYSTEM LOSSES GW =           0.0000          SYSTEM LOSSES GW =           0.0000
        SYSTEM LOSSES SW =           0.0000          SYSTEM LOSSES SW =           0.0000

                TOTAL IN =           0.0000                  TOTAL IN =           0.0000

          OUT:                                     OUT:
          ----                                     ----
               AG WELLS  =           0.0000                 AG WELLS  =           0.0000
      DIVERSION SEGMENTS =           0.0000        DIVERSION SEGMENTS =           0.0000
           GW IRRIGATION =           0.0000             GW IRRIGATION =           0.0000
           SW IRRIGATION =           0.0000             SW IRRIGATION =           0.0000
        SYSTEM LOSSES GW =           0.0000          SYSTEM LOSSES GW =           0.0000
        SYSTEM LOSSES SW =           0.0000          SYSTEM LOSSES SW =           0.0000

               TOTAL OUT =           0.0000                 TOTAL OUT =           0.0000

                IN - OUT =           0.0000                  IN - OUT =           0.0000

     PERCENT DISCREPANCY =           0.00         PERCENT DISCREPANCY =           0.00



1
              HEAD IN LAYER   1 AT END OF TIME STEP   1 IN STRESS PERIOD    2
  ---------------------------------------------------------------------------

           1       2       3       4       5       6       7       8       9      10
 ...................................................................................
   1  1029.26 1028.36 6999.00 6999.00 6999.00 6999.00 6999.00 6999.00 6999.00 6999.00
   2  1028.45 1027.36 1026.88 6999.00 6999.00 1028.30 1028.48 1028.46 6999.00 6999.00
   3  6999.00 1026.66 1026.39 1026.21 1026.77 1027.48 1028.04 1028.04 6999.00 6999.00
   4  1026.25 1026.11 1025.89 1025.72 1025.72 1025.86 1026.44 1027.58 1027.34 6999.00
   5  1025.90 1025.50 1025.30 1025.20 1025.26 1025.43 1025.71 1026.26 1026.91 1027.46
   6  1025.46 1024.92 1024.71 1024.66 1024.75 1024.99 1025.37 1025.92 1026.38 1027.29
   7  1025.06 1024.16 1023.99 1024.01 1024.15 1024.46 1024.94 1025.38 1025.92 6999.00
   8  6999.00 1023.02 1023.05 1023.19 1023.40 1023.81 1024.28 1024.92 1025.60 6999.00
   9  6999.00 1021.31 1021.62 1022.06 1022.44 1023.05 1023.57 1024.31 1025.54 6999.00
  10  6999.00 1018.82 1019.57 1020.57 1021.33 1022.32 1023.23 1024.33 1025.99 1026.64
  11  6999.00 1014.68 1016.10 1018.53 1020.11 1021.81 1023.34 1025.18 1027.44 6999.00
  12  1001.77 1007.67 1011.76 1015.60 1018.78 1021.71 1024.22 1027.74 1030.81 6999.00
  13   995.54 1000.36 1006.83 1012.77 1017.95 1022.45 1026.81 1031.65 1034.50 6999.00
  14  6999.00 1005.73 1008.80 1013.40 1018.06 1022.43 1027.39 1032.95 1037.43 6999.00
  15  6999.00 6999.00 1012.40 1015.08 1018.50 1021.48 6999.00 6999.00 6999.00 6999.00
1
  VOLUMETRIC BUDGET FOR ENTIRE MODEL AT END OF TIME STEP    1, STRESS PERIOD   2
  ------------------------------------------------------------------------------

     CUMULATIVE VOLUMES      L**3       RATES FOR THIS TIME STEP      L**3/T
     ------------------                 ------------------------

           IN:                                      IN:
           ---                                      ---
             STORAGE     =       65430.3164               STORAGE     =           0.7464
       CONSTANT HEAD     =           0.0000         CONSTANT HEAD     =           0.0000
     HEAD DEP BOUNDS     =       50088.7578       HEAD DEP BOUNDS     =           0.2878
      STREAM LEAKAGE     =     1812343.5000        STREAM LEAKAGE     =          11.1807
        UZF RECHARGE     =       73223.9531          UZF RECHARGE     =           0.0000
               GW ET     =           0.0000                 GW ET     =           0.0000
     SURFACE LEAKAGE     =           0.0000       SURFACE LEAKAGE     =           0.0000
           AG WELLS      =           0.0000             AG WELLS      =           0.0000

                TOTAL IN =     2001086.6250                  TOTAL IN =          12.2148

          OUT:                                     OUT:
          ----                                     ----
             STORAGE     =      161381.7188               STORAGE     =           1.8409
       CONSTANT HEAD     =           0.0000         CONSTANT HEAD     =           0.0000
     HEAD DEP BOUNDS     =       49879.4922       HEAD DEP BOUNDS     =           0.2866
      STREAM LEAKAGE     =     1789852.2500        STREAM LEAKAGE     =          10.0876
        UZF RECHARGE     =           0.0000          UZF RECHARGE     =           0.0000
               GW ET     =           0.0000                 GW ET     =           0.0000
     SURFACE LEAKAGE     =           0.0000       SURFACE LEAKAGE     =           0.0000
           AG WELLS      =           0.0000             AG WELLS      =           0.0000

               TOTAL OUT =     2001113.5000                 TOTAL OUT =          12.2151

                IN - OUT =         -26.8750                  IN - OUT =      -3.0899E-04

     PERCENT DISCREPANCY =          -0.00         PERCENT DISCREPANCY =          -0.00






         TIME SUMMARY AT END OF TIME STEP    1 IN STRESS PERIOD    2
                    SECONDS     MINUTES      HOURS       DAYS        YEARS
                    -----------------------------------------------------------
   TIME STEP LENGTH  87667.      1461.1      24.352      1.0147     2.77799E-03
 STRESS PERIOD TIME  87667.      1461.1      24.352      1.0147     2.77799E-03
         TOTAL TIME 1.74067E+05  2901.1      48.352      2.0147     5.51584E-03
1
 
 SOLVING FOR HEAD 
                                                   Max.-Head-Change                         Max.-Flux-Residual
  Residual-Control   Outer-Iter.   Inner-Iter.     Column Row Layer    Maximum-Head-Change  Column Row Layer    Maximum-Flux-Residual          L2-NORM 
          0                 1           2             5    4     1       0.4771848972E-02       5    4    1         0.2582580026E+00      0.5403927100E+00
          0                 2           2             5    4     1      -0.4641721424E-03       5    4    1        -0.2582589456E-01      0.5389182994E-01
          0                 3           1             5    4     1       0.3160838451E-04       5    4    1         0.1807812509E-02      0.3758357432E-02

    ------------------------------------------------
       NWT REQUIRED            3 OUTER ITERATIONS 
       AND A TOTAL OF          5 INNER ITERATIONS.
    ------------------------------------------------

 NO OUTPUT CONTROL FOR STRESS PERIOD    2   TIME STEP    2
 
 SOLVING FOR HEAD 
                                                   Max.-Head-Change                         Max.-Flux-Residual
  Residual-Control   Outer-Iter.   Inner-Iter.     Column Row Layer    Maximum-Head-Change  Column Row Layer    Maximum-Flux-Residual          L2-NORM 
          0                 1           2             5    4     1       0.4583646720E-02       5    4    1         0.2478847001E+00      0.5216599898E+00
          0                 2           2             5    4     1      -0.4458650800E-03       5    4    1        -0.2478855632E-01      0.5203527442E-01
          0                 3           1             5    4     1       0.3036174237E-04       5    4    1         0.1735198885E-02      0.3630524544E-02

    ------------------------------------------------
       NWT REQUIRED            3 OUTER ITERATIONS 
       AND A TOTAL OF          5 INNER ITERATIONS.
    ------------------------------------------------

 NO OUTPUT CONTROL FOR STRESS PERIOD    2   TIME STEP    3
 
 SOLVING FOR HEAD 
                                                   Max.-Head-Change                         Max.-Flux-Residual
  Residual-Control   Outer-Iter.   Inner-Iter.     Column Row Layer    Maximum-Head-Change  Column Row Layer    Maximum-Flux-Residual          L2-NORM 
          0                 1           2             5    4     1       0.4406075075E-02       5    4    1         0.2381005740E+00      0.5043754529E+00
          0                 2           2             5    4     1      -0.4285920960E-03       5    4    1        -0.2381013646E-01      0.5032140004E-01
          0                 3           1             5    4     1       0.2918551739E-04       5    4    1         0.1666709508E-02      0.3511994616E-02

    ------------------------------------------------
       NWT REQUIRED            3 OUTER ITERATIONS 
       AND A TOTAL OF          5 INNER ITERATIONS.
    ------------------------------------------------

 NO OUTPUT CONTROL FOR STRESS PERIOD    2   TIME STEP    4
 
 SOLVING FOR HEAD 
                                                   Max.-Head-Change                         Max.-Flux-Residual
  Residual-Control   Outer-Iter.   Inner-Iter.     Column Row Layer    Maximum-Head-Change  Column Row Layer    Maximum-Flux-Residual          L2-NORM 
          0                 1           2             5    4     1       0.4238682351E-02       5    4    1         0.2288807048E+00      0.4884229822E+00
          0                 2           2             5    4     1      -0.4123092549E-03       5    4    1        -0.2288814303E-01      0.4873921614E-01
          0                 3           1             5    4     1       0.2807671779E-04       5    4    1         0.1602170033E-02      0.3392911632E-02

    ------------------------------------------------
       NWT REQUIRED            3 OUTER ITERATIONS 
       AND A TOTAL OF          5 INNER ITERATIONS.
    ------------------------------------------------

 NO OUTPUT CONTROL FOR STRESS PERIOD    2   TIME STEP    5
 
 SOLVING FOR HEAD 
                                                   Max.-Head-Change                         Max.-Flux-Residual
  Residual-Control   Outer-Iter.   Inner-Iter.     Column Row Layer    Maximum-Head-Change  Column Row Layer    Maximum-Flux-Residual          L2-NORM 
          0                 1           2             5    4     1       0.4080580143E-02       5    4    1         0.2201755222E+00      0.4736659221E+00
          0                 2           2             5    4     1      -0.3969301356E-03       5    4    1        -0.2201761885E-01      0.4727557858E-01
          0                 3           1             5    4     1       0.2702945750E-04       5    4    1         0.1541233351E-02      0.3300765421E-02

    ------------------------------------------------
       NWT REQUIRED            3 OUTER ITERATIONS 
       AND A TOTAL OF          5 INNER ITERATIONS.
    ------------------------------------------------

 NO OUTPUT CONTROL FOR STRESS PERIOD    2   TIME STEP    6
 
 SOLVING FOR HEAD 
                                                   Max.-Head-Change                         Max.-Flux-Residual
  Residual-Control   Outer-Iter.   Inner-Iter.     Column Row Layer    Maximum-Head-Change  Column Row Layer    Maximum-Flux-Residual          L2-NORM 
          0                 1           2             5    4     1       0.3931653243E-02       5    4    1         0.2119781797E+00      0.4600304791E+00
          0                 2           2             5    4     1      -0.3824435323E-03       5    4    1        -0.2119787926E-01      0.4592262516E-01
          0                 3           1             5    4     1       0.2604297466E-04       5    4    1         0.1483851616E-02      0.3207116387E-02

    ------------------------------------------------
       NWT REQUIRED            3 OUTER ITERATIONS 
       AND A TOTAL OF          5 INNER ITERATIONS.
    ------------------------------------------------

 NO OUTPUT CONTROL FOR STRESS PERIOD    2   TIME STEP    7
 
 SOLVING FOR HEAD 
                                                   Max.-Head-Change                         Max.-Flux-Residual
  Residual-Control   Outer-Iter.   Inner-Iter.     Column Row Layer    Maximum-Head-Change  Column Row Layer    Maximum-Flux-Residual          L2-NORM 
          0                 1           2             5    4     1       0.3790839309E-02       5    4    1         0.2042304086E+00      0.4474023015E+00
          0                 2           2             5    4     1      -0.3687461059E-03       5    4    1        -0.2042309727E-01      0.4466884337E-01
          0                 3           1             5    4     1       0.2511023157E-04       5    4    1         0.1429616882E-02      0.3120310284E-02

    ------------------------------------------------
       NWT REQUIRED            3 OUTER ITERATIONS 
       AND A TOTAL OF          5 INNER ITERATIONS.
    ------------------------------------------------

 NO OUTPUT CONTROL FOR STRESS PERIOD    2   TIME STEP    8
 
 SOLVING FOR HEAD 
                                                   Max.-Head-Change                         Max.-Flux-Residual
  Residual-Control   Outer-Iter.   Inner-Iter.     Column Row Layer    Maximum-Head-Change  Column Row Layer    Maximum-Flux-Residual          L2-NORM 
          0                 1           2             5    4     1       0.3657864893E-02       5    4    1         0.1969163599E+00      0.4356955857E+00
          0                 2           2             5    4     1      -0.3558112573E-03       5    4    1        -0.1969168798E-01      0.4350630822E-01
          0                 3           1             5    4     1       0.2422941744E-04       5    4    1         0.1378418259E-02      0.3039686718E-02

    ------------------------------------------------
       NWT REQUIRED            3 OUTER ITERATIONS 
       AND A TOTAL OF          5 INNER ITERATIONS.
    ------------------------------------------------

 NO OUTPUT CONTROL FOR STRESS PERIOD    2   TIME STEP    9
 
 SOLVING FOR HEAD 
                                                   Max.-Head-Change                         Max.-Flux-Residual
  Residual-Control   Outer-Iter.   Inner-Iter.     Column Row Layer    Maximum-Head-Change  Column Row Layer    Maximum-Flux-Residual          L2-NORM 
          0                 1           2             5    4     1       0.3532230717E-02       5    4    1         0.1900087762E+00      0.4248478272E+00
          0                 2           2             5    4     1      -0.3435904201E-03       5    4    1        -0.1900092561E-01      0.4242866039E-01
          0                 3           1             5    4     1       0.2339722427E-04       5    4    1         0.1330064901E-02      0.2964939396E-02

    ------------------------------------------------
       NWT REQUIRED            3 OUTER ITERATIONS 
       AND A TOTAL OF          5 INNER ITERATIONS.
    ------------------------------------------------

 NO OUTPUT CONTROL FOR STRESS PERIOD    2   TIME STEP   10
 
 SOLVING FOR HEAD 
                                                   Max.-Head-Change                         Max.-Flux-Residual
  Residual-Control   Outer-Iter.   Inner-Iter.     Column Row Layer    Maximum-Head-Change  Column Row Layer    Maximum-Flux-Residual          L2-NORM 
          0                 1           2             5    4     1       0.3413719549E-02       5    4    1         0.1834948512E+00      0.4147737312E+00
          0                 2           2             5    4     1      -0.3320624627E-03       5    4    1        -0.1834952946E-01      0.4142762597E-01
          0                 3           1             5    4     1       0.2261221430E-04       5    4    1         0.1284467194E-02      0.2895348115E-02

    ------------------------------------------------
       NWT REQUIRED            3 OUTER ITERATIONS 
       AND A TOTAL OF          5 INNER ITERATIONS.
    ------------------------------------------------

 NO OUTPUT CONTROL FOR STRESS PERIOD    2   TIME STEP   11
 
 SOLVING FOR HEAD 
                                                   Max.-Head-Change                         Max.-Flux-Residual
  Residual-Control   Outer-Iter.   Inner-Iter.     Column Row Layer    Maximum-Head-Change  Column Row Layer    Maximum-Flux-Residual          L2-NORM 
          0                 1           2             5    4     1       0.3301408106E-02       5    4    1         0.1773240571E+00      0.4054018072E+00
          0                 2           2             5    4     1      -0.3211375735E-03       5    4    1        -0.1773244669E-01      0.4049650046E-01
          0                 3           1             5    4     1       0.2186827115E-04       5    4    1         0.1241271425E-02      0.2830701333E-02

    ------------------------------------------------
       NWT REQUIRED            3 OUTER ITERATIONS 
       AND A TOTAL OF          5 INNER ITERATIONS.
    ------------------------------------------------

 NO OUTPUT CONTROL FOR STRESS PERIOD    2   TIME STEP   12
 
 SOLVING FOR HEAD 
                                                   Max.-Head-Change                         Max.-Flux-Residual
  Residual-Control   Outer-Iter.   Inner-Iter.     Column Row Layer    Maximum-Head-Change  Column Row Layer    Maximum-Flux-Residual          L2-NORM 
          0                 1           2             5    4     1       0.3195383482E-02       5    4    1         0.1715009160E+00      0.3966854485E+00
          0                 2           2             5    4     1      -0.3108242248E-03       5    4    1        -0.1715012955E-01      0.3962962907E-01
          0                 3           1             5    4     1       0.2116597068E-04       5    4    1         0.1200509218E-02      0.2770761791E-02

    ------------------------------------------------
       NWT REQUIRED            3 OUTER ITERATIONS 
       AND A TOTAL OF          5 INNER ITERATIONS.
    ------------------------------------------------

 NO OUTPUT CONTROL FOR STRESS PERIOD    2   TIME STEP   13
 
 SOLVING FOR HEAD 
                                                   Max.-Head-Change                         Max.-Flux-Residual
  Residual-Control   Outer-Iter.   Inner-Iter.     Column Row Layer    Maximum-Head-Change  Column Row Layer    Maximum-Flux-Residual          L2-NORM 
          0                 1           2             5    4     1       0.3094775330E-02       5    4    1         0.1659775505E+00      0.3885594719E+00
          0                 2           2             5    4     1      -0.3010377553E-03       5    4    1        -0.1659779024E-01      0.3882159722E-01
          0                 3           1             5    4     1       0.2049954915E-04       5    4    1         0.1161845472E-02      0.2714249324E-02

    ------------------------------------------------
       NWT REQUIRED            3 OUTER ITERATIONS 
       AND A TOTAL OF          5 INNER ITERATIONS.
    ------------------------------------------------

 NO OUTPUT CONTROL FOR STRESS PERIOD    2   TIME STEP   14
 
 SOLVING FOR HEAD 
                                                   Max.-Head-Change                         Max.-Flux-Residual
  Residual-Control   Outer-Iter.   Inner-Iter.     Column Row Layer    Maximum-Head-Change  Column Row Layer    Maximum-Flux-Residual          L2-NORM 
          0                 1           2             5    4     1       0.2999970605E-02       5    4    1         0.1607742615E+00      0.3809929272E+00
          0                 2           2             5    4     1      -0.2918158043E-03       5    4    1        -0.1607745879E-01      0.3806886619E-01
          0                 3           1             5    4     1       0.1987156976E-04       5    4    1         0.1125422302E-02      0.2661632049E-02

    ------------------------------------------------
       NWT REQUIRED            3 OUTER ITERATIONS 
       AND A TOTAL OF          5 INNER ITERATIONS.
    ------------------------------------------------

 NO OUTPUT CONTROL FOR STRESS PERIOD    2   TIME STEP   15
 
 SOLVING FOR HEAD 
                                                   Max.-Head-Change                         Max.-Flux-Residual
  Residual-Control   Outer-Iter.   Inner-Iter.     Column Row Layer    Maximum-Head-Change  Column Row Layer    Maximum-Flux-Residual          L2-NORM 
          0                 1           2             5    4     1       0.2909894133E-02       5    4    1         0.1558326278E+00      0.3739168287E+00
          0                 2           2             5    4     1      -0.2830537859E-03       5    4    1        -0.1558329309E-01      0.3736461672E-01
          0                 3           1             5    4     1       0.1927490911E-04       5    4    1         0.1090830688E-02      0.2613132679E-02

    ------------------------------------------------
       NWT REQUIRED            3 OUTER ITERATIONS 
       AND A TOTAL OF          5 INNER ITERATIONS.
    ------------------------------------------------

 NO OUTPUT CONTROL FOR STRESS PERIOD    2   TIME STEP   16
 
 SOLVING FOR HEAD 
                                                   Max.-Head-Change                         Max.-Flux-Residual
  Residual-Control   Outer-Iter.   Inner-Iter.     Column Row Layer    Maximum-Head-Change  Column Row Layer    Maximum-Flux-Residual          L2-NORM 
          0                 1           2             5    4     1       0.2824734863E-02       5    4    1         0.1511623075E+00      0.3673111807E+00
          0                 2           2             5    4     1      -0.2747700809E-03       5    4    1        -0.1511625894E-01      0.3670736776E-01
          0                 3           1             5    4     1       0.1871082037E-04       5    4    1         0.1058138327E-02      0.2567288440E-02

    ------------------------------------------------
       NWT REQUIRED            3 OUTER ITERATIONS 
       AND A TOTAL OF          5 INNER ITERATIONS.
    ------------------------------------------------

 NO OUTPUT CONTROL FOR STRESS PERIOD    2   TIME STEP   17
 
 SOLVING FOR HEAD 
                                                   Max.-Head-Change                         Max.-Flux-Residual
  Residual-Control   Outer-Iter.   Inner-Iter.     Column Row Layer    Maximum-Head-Change  Column Row Layer    Maximum-Flux-Residual          L2-NORM 
          0                 1           2             5    4     1       0.2743946426E-02       5    4    1         0.1467338546E+00      0.3611127105E+00
          0                 2           2             5    4     1      -0.2669115403E-03       5    4    1        -0.1467341169E-01      0.3609011799E-01
          0                 3           1             5    4     1       0.1817568341E-04       5    4    1         0.1027139001E-02      0.2524367373E-02

    ------------------------------------------------
       NWT REQUIRED            3 OUTER ITERATIONS 
       AND A TOTAL OF          5 INNER ITERATIONS.
    ------------------------------------------------

 NO OUTPUT CONTROL FOR STRESS PERIOD    2   TIME STEP   18
 
 SOLVING FOR HEAD 
                                                   Max.-Head-Change                         Max.-Flux-Residual
  Residual-Control   Outer-Iter.   Inner-Iter.     Column Row Layer    Maximum-Head-Change  Column Row Layer    Maximum-Flux-Residual          L2-NORM 
          0                 1           2             5    4     1       0.2667268038E-02       5    4    1         0.1425320216E+00      0.3553068421E+00
          0                 2           2             5    4     1      -0.2594527984E-03       5    4    1        -0.1425322661E-01      0.3551211763E-01
          0                 3           1             5    4     1       0.1766777121E-04       5    4    1         0.9977260584E-03      0.2484188808E-02

    ------------------------------------------------
       NWT REQUIRED            3 OUTER ITERATIONS 
       AND A TOTAL OF          5 INNER ITERATIONS.
    ------------------------------------------------

 NO OUTPUT CONTROL FOR STRESS PERIOD    2   TIME STEP   19
 
 SOLVING FOR HEAD 
                                                   Max.-Head-Change                         Max.-Flux-Residual
  Residual-Control   Outer-Iter.   Inner-Iter.     Column Row Layer    Maximum-Head-Change  Column Row Layer    Maximum-Flux-Residual          L2-NORM 
          0                 1           2             5    4     1       0.2594683983E-02       5    4    1         0.1385563688E+00      0.3498585297E+00
          0                 2           2             5    4     1      -0.2523923255E-03       5    4    1        -0.1385565966E-01      0.3496833284E-01
          0                 3           1             5    4     1       0.1718698058E-04       5    4    1         0.9698963991E-03      0.2445351596E-02

    ------------------------------------------------
       NWT REQUIRED            3 OUTER ITERATIONS 
       AND A TOTAL OF          5 INNER ITERATIONS.
    ------------------------------------------------

 NO OUTPUT CONTROL FOR STRESS PERIOD    2   TIME STEP   20
 
 SOLVING FOR HEAD 
                                                   Max.-Head-Change                         Max.-Flux-Residual
  Residual-Control   Outer-Iter.   Inner-Iter.     Column Row Layer    Maximum-Head-Change  Column Row Layer    Maximum-Flux-Residual          L2-NORM 
          0                 1           2             5    4     1       0.2525710428E-02       5    4    1         0.1347799189E+00      0.3447336484E+00
          0                 2           2             5    4     1      -0.2456830574E-03       5    4    1        -0.1347801315E-01      0.3445875249E-01
          0                 3           1             5    4     1       0.1673010484E-04       5    4    1         0.9434611266E-03      0.2410794725E-02

    ------------------------------------------------
       NWT REQUIRED            3 OUTER ITERATIONS 
       AND A TOTAL OF          5 INNER ITERATIONS.
    ------------------------------------------------

 NO OUTPUT CONTROL FOR STRESS PERIOD    2   TIME STEP   21
 
 SOLVING FOR HEAD 
                                                   Max.-Head-Change                         Max.-Flux-Residual
  Residual-Control   Outer-Iter.   Inner-Iter.     Column Row Layer    Maximum-Head-Change  Column Row Layer    Maximum-Flux-Residual          L2-NORM 
          0                 1           2             5    4     1       0.2460369807E-02       5    4    1         0.1312037485E+00      0.3399137436E+00
          0                 2           2             5    4     1      -0.2393271763E-03       5    4    1        -0.1312039469E-01      0.3397841903E-01
          0                 3           1             5    4     1       0.1629729380E-04       5    4    1         0.9184278483E-03      0.2377583566E-02

    ------------------------------------------------
       NWT REQUIRED            3 OUTER ITERATIONS 
       AND A TOTAL OF          5 INNER ITERATIONS.
    ------------------------------------------------

 NO OUTPUT CONTROL FOR STRESS PERIOD    2   TIME STEP   22
 
 SOLVING FOR HEAD 
                                                   Max.-Head-Change                         Max.-Flux-Residual
  Residual-Control   Outer-Iter.   Inner-Iter.     Column Row Layer    Maximum-Head-Change  Column Row Layer    Maximum-Flux-Residual          L2-NORM 
          0                 1           2             5    4     1       0.2398203638E-02       5    4    1         0.1278028582E+00      0.3353733925E+00
          0                 2           2             5    4     1      -0.2332800849E-03       5    4    1        -0.1278030441E-01      0.3352588491E-01
          0                 3           1             5    4     1       0.1588550929E-04       5    4    1         0.8946215098E-03      0.2345842616E-02

    ------------------------------------------------
       NWT REQUIRED            3 OUTER ITERATIONS 
       AND A TOTAL OF          5 INNER ITERATIONS.
    ------------------------------------------------

 NO OUTPUT CONTROL FOR STRESS PERIOD    2   TIME STEP   23
 
 SOLVING FOR HEAD 
                                                   Max.-Head-Change                         Max.-Flux-Residual
  Residual-Control   Outer-Iter.   Inner-Iter.     Column Row Layer    Maximum-Head-Change  Column Row Layer    Maximum-Flux-Residual          L2-NORM 
          0                 1           2             5    4     1       0.2339267583E-02       5    4    1         0.1245796846E+00      0.3310885162E+00
          0                 2           2             5    4     1      -0.2275471971E-03       5    4    1        -0.1245798585E-01      0.3309845574E-01
          0                 3           1             5    4     1       0.1549512170E-04       5    4    1         0.8720592259E-03      0.2315908254E-02

    ------------------------------------------------
       NWT REQUIRED            3 OUTER ITERATIONS 
       AND A TOTAL OF          5 INNER ITERATIONS.
    ------------------------------------------------

 NO OUTPUT CONTROL FOR STRESS PERIOD    2   TIME STEP   24
 
 SOLVING FOR HEAD 
                                                   Max.-Head-Change                         Max.-Flux-Residual
  Residual-Control   Outer-Iter.   Inner-Iter.     Column Row Layer    Maximum-Head-Change  Column Row Layer    Maximum-Flux-Residual          L2-NORM 
          0                 1           2             5    4     1       0.2283365807E-02       5    4    1         0.1215238963E+00      0.3270408967E+00
          0                 2           2             5    4     1      -0.2221094624E-03       5    4    1        -0.1215240592E-01      0.3269504380E-01
          0                 3           1             5    4     1       0.1512483216E-04       5    4    1         0.8506686040E-03      0.2287850386E-02

    ------------------------------------------------
       NWT REQUIRED            3 OUTER ITERATIONS 
       AND A TOTAL OF          5 INNER ITERATIONS.
    ------------------------------------------------

 NO OUTPUT CONTROL FOR STRESS PERIOD    2   TIME STEP   25
 
 SOLVING FOR HEAD 
                                                   Max.-Head-Change                         Max.-Flux-Residual
  Residual-Control   Outer-Iter.   Inner-Iter.     Column Row Layer    Maximum-Head-Change  Column Row Layer    Maximum-Flux-Residual          L2-NORM 
          0                 1           2             5    4     1       0.2230079956E-02       5    4    1         0.1186123939E+00      0.3232037394E+00
          0                 2           2             5    4     1      -0.2169261876E-03       5    4    1        -0.1186125467E-01      0.3231219780E-01
          0                 3           1             5    4     1       0.1477187090E-04       5    4    1         0.8302880278E-03      0.2261059292E-02

    ------------------------------------------------
       NWT REQUIRED            3 OUTER ITERATIONS 
       AND A TOTAL OF          5 INNER ITERATIONS.
    ------------------------------------------------

 NO OUTPUT CONTROL FOR STRESS PERIOD    2   TIME STEP   26
 
 SOLVING FOR HEAD 
                                                   Max.-Head-Change                         Max.-Flux-Residual
  Residual-Control   Outer-Iter.   Inner-Iter.     Column Row Layer    Maximum-Head-Change  Column Row Layer    Maximum-Flux-Residual          L2-NORM 
          0                 1           2             5    4     1       0.2179256467E-02       5    4    1         0.1158365227E+00      0.3195661986E+00
          0                 2           2             5    4     1      -0.2119824347E-03       5    4    1        -0.1158366662E-01      0.3194947110E-01
          0                 3           1             5    4     1       0.1443522021E-04       5    4    1         0.8108568682E-03      0.2235822811E-02

    ------------------------------------------------
       NWT REQUIRED            3 OUTER ITERATIONS 
       AND A TOTAL OF          5 INNER ITERATIONS.
    ------------------------------------------------

 NO OUTPUT CONTROL FOR STRESS PERIOD    2   TIME STEP   27
 
 SOLVING FOR HEAD 
                                                   Max.-Head-Change                         Max.-Flux-Residual
  Residual-Control   Outer-Iter.   Inner-Iter.     Column Row Layer    Maximum-Head-Change  Column Row Layer    Maximum-Flux-Residual          L2-NORM 
          0                 1           2             5    4     1       0.2131225178E-02       5    4    1         0.1132144844E+00      0.3161253532E+00
          0                 2           2             5    4     1      -0.2073102874E-03       5    4    1        -0.1132146191E-01      0.3160618070E-01
          0                 3           1             5    4     1       0.1411706530E-04       5    4    1         0.7925025466E-03      0.2211837125E-02

    ------------------------------------------------
       NWT REQUIRED            3 OUTER ITERATIONS 
       AND A TOTAL OF          5 INNER ITERATIONS.
    ------------------------------------------------

 NO OUTPUT CONTROL FOR STRESS PERIOD    2   TIME STEP   28
 
 SOLVING FOR HEAD 
                                                   Max.-Head-Change                         Max.-Flux-Residual
  Residual-Control   Outer-Iter.   Inner-Iter.     Column Row Layer    Maximum-Head-Change  Column Row Layer    Maximum-Flux-Residual          L2-NORM 
          0                 1           2             5    4     1       0.2085111186E-02       5    4    1         0.1106979714E+00      0.3128358781E+00
          0                 2           2             5    4     1      -0.2028246414E-03       5    4    1        -0.1106980979E-01      0.3126961232E-01
          0                 3           1             5    4     1       0.1381160981E-04       5    4    1         0.7748868925E-03      0.2188488445E-02

    ------------------------------------------------
       NWT REQUIRED            3 OUTER ITERATIONS 
       AND A TOTAL OF          5 INNER ITERATIONS.
    ------------------------------------------------

 NO OUTPUT CONTROL FOR STRESS PERIOD    2   TIME STEP   29
 
 SOLVING FOR HEAD 
                                                   Max.-Head-Change                         Max.-Flux-Residual
  Residual-Control   Outer-Iter.   Inner-Iter.     Column Row Layer    Maximum-Head-Change  Column Row Layer    Maximum-Flux-Residual          L2-NORM 
          0                 1           2             5    4     1       0.2041517159E-02       5    4    1         0.1083201129E+00      0.3097361249E+00
          0                 2           2             5    4     1      -0.1985841212E-03       5    4    1        -0.1083202321E-01      0.3096861902E-01
          0                 3           1             5    4     1       0.1352284664E-04       5    4    1         0.7582418393E-03      0.2167336039E-02

    ------------------------------------------------
       NWT REQUIRED            3 OUTER ITERATIONS 
       AND A TOTAL OF          5 INNER ITERATIONS.
    ------------------------------------------------

 NO OUTPUT CONTROL FOR STRESS PERIOD    2   TIME STEP   30



 STREAM LISTING     PERIOD      2   STEP       30

 LAYER ROW COL. STREAM  RCH.  FLOW INTO     FLOW TO   FLOW OUT OF   OVRLND.     DIRECT     STREAM       STREAM     STREAM     STREAM   STREAMBED  STREAMBED
                SEG.NO.  NO.  STRM. RCH.    AQUIFER    STRM. RCH.    RUNOFF     PRECIP       ET          HEAD       DEPTH      WIDTH   CONDCTNC.   GRADIENT

   1    1    1     1     1    8.2500E+00  1.3178E-01   8.1182E+00  0.000E+00  0.000E+00  0.000E+00  1.09389E+03  8.424E-01  7.622E+00  3.430E-02  1.281E+00
   1    2    2     1     2    8.1182E+00  2.0240E-01   7.9158E+00  0.000E+00  0.000E+00  0.000E+00  1.08890E+03  8.367E-01  7.536E+00  5.276E-02  1.279E+00
   1    3    3     1     3    7.9158E+00  1.7099E-01   7.7448E+00  0.000E+00  0.000E+00  0.000E+00  1.08325E+03  8.302E-01  7.440E+00  4.464E-02  1.277E+00
   1    3    4     1     4    7.7448E+00  1.5612E-01   7.5887E+00  0.000E+00  0.000E+00  0.000E+00  1.07823E+03  8.244E-01  7.355E+00  4.082E-02  1.275E+00
   1    4    5     2     1    5.5887E+00  2.7178E-01   5.3169E+00  0.000E+00  0.000E+00  0.000E+00  1.07242E+03  4.843E-01  1.200E+01  7.800E-02  1.161E+00
   1    5    6     2     2    5.3169E+00  2.0828E-01   5.1087E+00  0.000E+00  0.000E+00  0.000E+00  1.06698E+03  4.714E-01  1.200E+01  6.000E-02  1.157E+00
   1    6    6     2     3    5.1087E+00  2.0760E-01   4.9010E+00  0.000E+00  0.000E+00  0.000E+00  1.06225E+03  4.600E-01  1.200E+01  6.000E-02  1.153E+00
   1    7    6     2     4    4.9010E+00  2.0691E-01   4.6941E+00  0.000E+00  0.000E+00  0.000E+00  1.05752E+03  4.485E-01  1.200E+01  6.000E-02  1.149E+00
   1    8    6     2     5    4.6941E+00  2.0621E-01   4.4879E+00  0.000E+00  0.000E+00  0.000E+00  1.05280E+03  4.368E-01  1.200E+01  6.000E-02  1.146E+00
   1    3    5     3     1    2.0000E+00  2.8252E-01   1.7175E+00  0.000E+00  0.000E+00  0.000E+00  1.07555E+03  1.909E+00  9.636E+00  7.227E-02  1.955E+00
   1    3    6     3     2    1.7175E+00  2.4905E-01   1.4684E+00  0.000E+00  0.000E+00  0.000E+00  1.07264E+03  1.727E+00  8.909E+00  6.682E-02  1.864E+00
   1    3    7     3     3    1.4684E+00  1.9718E-01   1.2712E+00  0.000E+00  0.000E+00  0.000E+00  1.06987E+03  1.555E+00  8.218E+00  5.547E-02  1.777E+00
   1    4    8     3     4    1.2712E+00  2.2567E-01   1.0456E+00  0.000E+00  0.000E+00  0.000E+00  1.06682E+03  1.364E+00  7.455E+00  6.709E-02  1.682E+00
   1    5    8     3     5    1.0456E+00  1.5790E-01   8.8768E-01  0.000E+00  0.000E+00  0.000E+00  1.06362E+03  1.164E+00  6.655E+00  4.991E-02  1.582E+00
   1    6    8     3     6    8.8768E-01  5.5980E-02   8.3170E-01  0.000E+00  0.000E+00  0.000E+00  1.06158E+03  1.036E+00  6.145E+00  1.844E-02  1.518E+00
   1    5   10     4     1    1.0000E+01  9.0919E-02   9.9091E+00  0.000E+00  0.000E+00  0.000E+00  1.07836E+03  6.368E-01  1.000E+01  2.500E-02  1.212E+00
   1    5    9     4     2    9.9091E+00  1.8158E-01   9.7275E+00  0.000E+00  0.000E+00  0.000E+00  1.07154E+03  6.315E-01  1.000E+01  5.000E-02  1.211E+00
   1    6    8     4     3    9.7275E+00  1.2689E-01   9.6006E+00  0.000E+00  0.000E+00  0.000E+00  1.06381E+03  6.256E-01  1.000E+01  3.500E-02  1.209E+00
   1    6    8     5     1    1.0432E+01  2.2686E-01   1.0205E+01  0.000E+00  0.000E+00  0.000E+00  1.05868E+03  6.790E-01  1.542E+01  6.166E-02  1.226E+00
   1    7    7     5     2    1.0205E+01  2.7894E-01   9.9265E+00  0.000E+00  0.000E+00  0.000E+00  1.05417E+03  6.732E-01  1.519E+01  7.594E-02  1.224E+00
   1    8    7     5     3    9.9265E+00  1.9221E-01   9.7343E+00  0.000E+00  0.000E+00  0.000E+00  1.04992E+03  6.676E-01  1.497E+01  5.241E-02  1.223E+00
   1    8    6     5     4    9.7343E+00  1.3577E-01   9.5985E+00  0.000E+00  0.000E+00  0.000E+00  1.04691E+03  6.637E-01  1.482E+01  3.706E-02  1.221E+00
   1    9    6     6     1    1.4086E+01  2.3167E-01   1.3855E+01  0.000E+00  0.000E+00  0.000E+00  1.04359E+03  8.612E-01  1.200E+01  6.000E-02  1.287E+00
   1   10    7     6     2    1.3855E+01  2.3116E-01   1.3624E+01  0.000E+00  0.000E+00  0.000E+00  1.03903E+03  8.526E-01  1.200E+01  6.000E-02  1.284E+00
   1   11    7     6     3    1.3624E+01  2.3064E-01   1.3393E+01  0.000E+00  0.000E+00  0.000E+00  1.03448E+03  8.440E-01  1.200E+01  6.000E-02  1.281E+00
   1   12    7     6     4    1.3393E+01  2.3012E-01   1.3163E+01  0.000E+00  0.000E+00  0.000E+00  1.02993E+03  8.353E-01  1.200E+01  6.000E-02  1.278E+00
   1   13    7     6     5    1.3163E+01 -2.0977E-02   1.3184E+01  0.000E+00  0.000E+00  0.000E+00  1.02674E+03  8.314E-01  1.200E+01  2.400E-01 -2.913E-02
   1   14    9     7     1    1.5000E+02  1.3658E+00   1.4863E+02  0.000E+00  0.000E+00  0.000E+00  1.03987E+03  2.288E+00  5.529E+01  5.593E-01  8.140E-01
   1   13    8     7     2    1.4863E+02  1.9203E+00   1.4671E+02  0.000E+00  0.000E+00  0.000E+00  1.03478E+03  2.279E+00  5.526E+01  6.148E-01  1.041E+00
   1   13    7     7     3    1.4671E+02  1.5976E+00   1.4512E+02  0.000E+00  0.000E+00  0.000E+00  1.02969E+03  2.270E+00  5.521E+01  5.584E-01  9.537E-01
   1   13    6     8     1    1.5830E+02  9.7214E-01   1.5733E+02  0.000E+00  0.000E+00  0.000E+00  1.02475E+03  2.871E+00  4.163E+01  4.242E-01  7.639E-01
   1   13    5     8     2    1.5733E+02  2.2507E-01   1.5710E+02  0.000E+00  0.000E+00  0.000E+00  1.01849E+03  2.867E+00  4.157E+01  4.236E-01  1.771E-01
   1   13    4     8     3    1.5710E+02 -2.2709E+00   1.5937E+02  0.000E+00  0.000E+00  0.000E+00  1.01225E+03  2.874E+00  4.167E+01  4.246E+00 -1.783E-01
   1   13    3     8     4    1.5937E+02 -3.5514E+00   1.6293E+02  0.000E+00  0.000E+00  0.000E+00  1.00602E+03  2.894E+00  4.196E+01  4.276E+00 -2.769E-01
   1   13    2     8     5    1.6293E+02 -2.5395E+00   1.6546E+02  0.000E+00  0.000E+00  0.000E+00  9.99789E+02  2.914E+00  4.225E+01  4.306E+00 -1.966E-01
   1   13    1     8     6    1.6546E+02 -1.9547E+00   1.6742E+02  0.000E+00  0.000E+00  0.000E+00  9.94804E+02  2.929E+00  4.247E+01  2.597E+00 -2.509E-01
   1    8    6     9     1    0.0000E+00  0.0000E+00   0.0000E+00  0.000E+00  0.000E+00  0.000E+00  1.07875E+03  0.000E+00  4.000E+00  0.000E+00  1.000E+00
   1    8    5     9     2    0.0000E+00  0.0000E+00   0.0000E+00  0.000E+00  0.000E+00  0.000E+00  1.07825E+03  0.000E+00  4.000E+00  0.000E+00  1.000E+00





UNSATURATED ZONE PACKAGE VOLUMETRIC BUDGET FOR  TIME STEP    30 STRESS PERIOD    2
  ------------------------------------------------------------------------------



     CUMULATIVE VOLUMES      L**3       RATES FOR THIS TIME STEP      L**3/T
     ------------------                 ------------------------

           IN:                                      IN:
           ---                                      ---
        INFILTRATION =    11664948.5581          INFILTRATION =           4.4075

          OUT:                                     OUT:
          ----                                     ----
              UZF ET =     1906749.8895                UZF ET =           0.7250
        UZF RECHARGE =       73224.0000          UZF RECHARGE =       0.0000E+00

            IN - OUT =     9684974.6686              IN - OUT =           3.6825

          STORAGE:                                 STORAGE:
          --------                                 --------
      STORAGE CHANGE =     9684974.6082        STORAGE CHANGE =           3.6825

 PERCENT DISCREPANCY IS DIFFERENCE BETWEEN IN-OUT MINUS CHANGE IN STORAGE
 DIVIDED BY THE AVERAGE OF IN AND OUT TIMES 100

 PERCENT DISCREPANCY =           0.00     PERCENT DISCREPANCY =           0.00






1
  VOLUMETRIC BUDGET FOR AGRICULTURAL FIELDS AT  END OF TIME STEP   30, STRESS PERIOD   2
  ------------------------------------------------------------------------------

     CUMULATIVE VOLUMES      L**3       RATES FOR THIS TIME STEP      L**3/T
     ------------------                 ------------------------

           IN:                                      IN:
           ---                                      ---
               AG WELLS  =           0.0000                 AG WELLS  =           0.0000
      DIVERSION SEGMENTS =           0.0000        DIVERSION SEGMENTS =           0.0000
           GW IRRIGATION =           0.0000             GW IRRIGATION =           0.0000
           SW IRRIGATION =           0.0000             SW IRRIGATION =           0.0000
        SYSTEM LOSSES GW =           0.0000          SYSTEM LOSSES GW =           0.0000
        SYSTEM LOSSES SW =           0.0000          SYSTEM LOSSES SW =           0.0000

                TOTAL IN =           0.0000                  TOTAL IN =           0.0000

          OUT:                                     OUT:
          ----                                     ----
               AG WELLS  =           0.0000                 AG WELLS  =           0.0000
      DIVERSION SEGMENTS =           0.0000        DIVERSION SEGMENTS =           0.0000
           GW IRRIGATION =           0.0000             GW IRRIGATION =           0.0000
           SW IRRIGATION =           0.0000             SW IRRIGATION =           0.0000
        SYSTEM LOSSES GW =           0.0000          SYSTEM LOSSES GW =           0.0000
        SYSTEM LOSSES SW =           0.0000          SYSTEM LOSSES SW =           0.0000

               TOTAL OUT =           0.0000                 TOTAL OUT =           0.0000

                IN - OUT =           0.0000                  IN - OUT =           0.0000

     PERCENT DISCREPANCY =           0.00         PERCENT DISCREPANCY =           0.00



1
  VOLUMETRIC BUDGET FOR ENTIRE MODEL AT END OF TIME STEP   30, STRESS PERIOD   2
  ------------------------------------------------------------------------------

     CUMULATIVE VOLUMES      L**3       RATES FOR THIS TIME STEP      L**3/T
     ------------------                 ------------------------

           IN:                                      IN:
           ---                                      ---
             STORAGE     =     1698293.6250               STORAGE     =           0.5858
       CONSTANT HEAD     =           0.0000         CONSTANT HEAD     =           0.0000
     HEAD DEP BOUNDS     =      781723.8750       HEAD DEP BOUNDS     =           0.2878
      STREAM LEAKAGE     =    30218964.0000        STREAM LEAKAGE     =          11.1681
        UZF RECHARGE     =       73223.9531          UZF RECHARGE     =           0.0000
               GW ET     =           0.0000                 GW ET     =           0.0000
     SURFACE LEAKAGE     =           0.0000       SURFACE LEAKAGE     =           0.0000
           AG WELLS      =           0.0000             AG WELLS      =           0.0000

                TOTAL IN =    32772206.0000                  TOTAL IN =          12.0417

          OUT:                                     OUT:
          ----                                     ----
             STORAGE     =     4124338.5000               STORAGE     =           1.4173
       CONSTANT HEAD     =           0.0000         CONSTANT HEAD     =           0.0000
     HEAD DEP BOUNDS     =      779352.1875       HEAD DEP BOUNDS     =           0.2872
      STREAM LEAKAGE     =    27869198.0000        STREAM LEAKAGE     =          10.3374
        UZF RECHARGE     =           0.0000          UZF RECHARGE     =           0.0000
               GW ET     =           0.0000                 GW ET     =           0.0000
     SURFACE LEAKAGE     =           0.0000       SURFACE LEAKAGE     =           0.0000
           AG WELLS      =           0.0000             AG WELLS      =           0.0000

               TOTAL OUT =    32772888.0000                 TOTAL OUT =          12.0419

                IN - OUT =        -682.0000                  IN - OUT =      -2.3365E-04

     PERCENT DISCREPANCY =          -0.00         PERCENT DISCREPANCY =          -0.00






         TIME SUMMARY AT END OF TIME STEP   30 IN STRESS PERIOD    2
                    SECONDS     MINUTES      HOURS       DAYS        YEARS
                    -----------------------------------------------------------
   TIME STEP LENGTH  87667.      1461.1      24.352      1.0147     2.77799E-03
 STRESS PERIOD TIME 2.63000E+06  43833.      730.56      30.440     8.33397E-02
         TOTAL TIME 2.71640E+06  45273.      754.56      31.440     8.60775E-02
1
1
                            STRESS PERIOD NO.    3, LENGTH =   2630000.    
                            -----------------------------------------------

                              NUMBER OF TIME STEPS =    30

                               MULTIPLIER FOR DELT =     1.000

                            INITIAL TIME STEP SIZE =   87666.66    

 REUSING NON-PARAMETER GHB CELLS FROM LAST STRESS PERIOD

      2 GHB CELLS

 REUSING STREAM SEGMENT DATA FROM LAST STRESS PERIOD



            AREAL INFILTRATION RATE
 READING ON UNIT   19 WITH FORMAT: (10F4.0)            

            1           2           3           4           5           6           7           8           9          10
 ........................................................................................................................
   1   1.2000E-09   0.000       0.000       0.000       0.000       0.000       0.000       0.000       0.000       0.000    
   2   2.1000E-09  2.0000E-09  8.0000E-10  8.5000E-09   0.000       0.000       0.000       0.000       0.000       0.000    
   3   5.0000E-10  1.1000E-09  8.8000E-09  5.5000E-09   0.000       0.000       0.000       0.000       0.000       0.000    
   4   8.5000E-09  1.1000E-09  1.1000E-09  1.1000E-09  2.0000E-09   0.000       0.000       0.000       0.000       0.000    
   5   8.5000E-09  1.1000E-09  1.1000E-09  1.1000E-09  1.1000E-09   0.000       0.000       0.000       0.000       0.000    
   6   8.5000E-09  5.2000E-09  2.1000E-09  1.1000E-09  1.5000E-09   0.000       0.000       0.000       0.000       0.000    
   7   8.5000E-09  5.2000E-09  2.1000E-09  1.2000E-09  2.0000E-09   0.000       0.000       0.000       0.000       0.000    
   8   5.0000E-10  5.2000E-09  2.1000E-09  1.2000E-09  5.0000E-09   0.000       0.000       0.000       0.000       0.000    
   9   5.0000E-10  5.2000E-09  2.1000E-09  1.2000E-09  5.0000E-09   0.000       0.000       0.000       0.000       0.000    
  10   5.0000E-10  5.2000E-09  2.1000E-09  1.2000E-09  5.8000E-09   0.000       0.000       0.000       0.000       0.000    
  11   1.0000E-10  1.1000E-09  1.1000E-09  1.2000E-09  5.0000E-09   0.000       0.000       0.000       0.000       0.000    
  12   1.1000E-09  1.1000E-09  1.1000E-09  1.1000E-09  2.0000E-09   0.000       0.000       0.000       0.000       0.000    
  13   1.1000E-09  2.2000E-09  2.2000E-09  2.1000E-09  1.0000E-09   0.000       0.000       0.000       0.000       0.000    
  14   2.0000E-10  5.5000E-09  5.5000E-09  5.2000E-09  1.0000E-09   0.000       0.000       0.000       0.000       0.000    
  15    0.000      8.8000E-09  8.8000E-09   0.000       0.000       0.000       0.000       0.000       0.000       0.000    

                  ET RATE =  5.000000E-10

 USING ET EXTINCTION DEPTH FROM PREVIOUS STRESS PERIOD. CURRENT PERIOD IS:       3

 USING EXTINCTION WATER CONTENT FROM PREVIOUS STRESS PERIOD. CURRENT PERIOD IS:       3

 USING AIR ENTRY PRESSURE FROM PREVIOUS STRESS PERIOD. CURRENT PERIOD IS:       3

 USING ROOT PRESSURE HEAD FROM PREVIOUS STRESS PERIOD. CURRENT PERIOD IS:       3

 USING ROOT ACTIVITY FROM PREVIOUS STRESS PERIOD. CURRENT PERIOD IS:       3

 PROCESSING AG STRESS PERIOD DATA

 READING AG STRESS PERIOD DATA

 READING IRRIGATION SEGMENT

 READING IRRIGATION WELL

 READING SUPPLEMENTAL WELL

 END PROCESSING AG STRESS PERIOD DATA OPTIONS
 
 SOLVING FOR HEAD 
                                                   Max.-Head-Change                         Max.-Flux-Residual
  Residual-Control   Outer-Iter.   Inner-Iter.     Column Row Layer    Maximum-Head-Change  Column Row Layer    Maximum-Flux-Residual          L2-NORM 
          0                 1           2             2    2     1       0.2525011411E-02       2    2    1         0.1319005140E+00      0.4039561933E+00
          0                 2           2             2    2     1      -0.2456150180E-03       2    2    1        -0.1319006884E-01      0.4182159887E-01
          0                 3           1             2    2     1       0.1672546959E-04       2    2    1         0.9233050496E-03      0.2911421437E-02

    ------------------------------------------------
       NWT REQUIRED            3 OUTER ITERATIONS 
       AND A TOTAL OF          5 INNER ITERATIONS.
    ------------------------------------------------

 NO OUTPUT CONTROL FOR STRESS PERIOD    3   TIME STEP    1
 
 SOLVING FOR HEAD 
                                                   Max.-Head-Change                         Max.-Flux-Residual
  Residual-Control   Outer-Iter.   Inner-Iter.     Column Row Layer    Maximum-Head-Change  Column Row Layer    Maximum-Flux-Residual          L2-NORM 
          0                 1           2             2    2     1       0.3324146315E-02       2    2    1         0.1736569715E+00      0.5146740245E+00
          0                 2           2             2    2     1      -0.3233492521E-03       2    2    1        -0.1736572779E-01      0.5101962438E-01
          0                 3           1             2    2     1       0.2201888056E-04       2    2    1         0.1215601175E-02      0.3529567416E-02

    ------------------------------------------------
       NWT REQUIRED            3 OUTER ITERATIONS 
       AND A TOTAL OF          5 INNER ITERATIONS.
    ------------------------------------------------

 NO OUTPUT CONTROL FOR STRESS PERIOD    3   TIME STEP    2
 
 SOLVING FOR HEAD 
                                                   Max.-Head-Change                         Max.-Flux-Residual
  Residual-Control   Outer-Iter.   Inner-Iter.     Column Row Layer    Maximum-Head-Change  Column Row Layer    Maximum-Flux-Residual          L2-NORM 
          0                 1           2             2    2     1       0.3301481187E-02       2    2    1         0.1724651378E+00      0.4998431502E+00
          0                 2           2             2    2     1      -0.3211445445E-03       2    2    1        -0.1724654384E-01      0.4958841579E-01
          0                 3           1             2    2     1       0.2186874900E-04       2    2    1         0.1207258316E-02      0.3434975045E-02

    ------------------------------------------------
       NWT REQUIRED            3 OUTER ITERATIONS 
       AND A TOTAL OF          5 INNER ITERATIONS.
    ------------------------------------------------

 NO OUTPUT CONTROL FOR STRESS PERIOD    3   TIME STEP    3
 
 SOLVING FOR HEAD 
                                                   Max.-Head-Change                         Max.-Flux-Residual
  Residual-Control   Outer-Iter.   Inner-Iter.     Column Row Layer    Maximum-Head-Change  Column Row Layer    Maximum-Flux-Residual          L2-NORM 
          0                 1           2             2    2     1       0.3279132530E-02       2    2    1         0.1712899746E+00      0.4865714415E+00
          0                 2           2             2    2     1      -0.3189706211E-03       2    2    1        -0.1712902696E-01      0.4830920447E-01
          0                 3           1             2    2     1       0.2172071247E-04       2    2    1         0.1199032129E-02      0.3349699057E-02

    ------------------------------------------------
       NWT REQUIRED            3 OUTER ITERATIONS 
       AND A TOTAL OF          5 INNER ITERATIONS.
    ------------------------------------------------

 NO OUTPUT CONTROL FOR STRESS PERIOD    3   TIME STEP    4
 
 SOLVING FOR HEAD 
                                                   Max.-Head-Change                         Max.-Flux-Residual
  Residual-Control   Outer-Iter.   Inner-Iter.     Column Row Layer    Maximum-Head-Change  Column Row Layer    Maximum-Flux-Residual          L2-NORM 
          0                 1           2             2    2     1       0.3257010826E-02       2    2    1         0.1701267847E+00      0.4746970453E+00
          0                 2           2             2    2     1      -0.3168187745E-03       2    2    1        -0.1701270743E-01      0.4716339850E-01
          0                 3           1             2    2     1       0.2157417976E-04       2    2    1         0.1190889771E-02      0.3273677861E-02

    ------------------------------------------------
       NWT REQUIRED            3 OUTER ITERATIONS 
       AND A TOTAL OF          5 INNER ITERATIONS.
    ------------------------------------------------

 NO OUTPUT CONTROL FOR STRESS PERIOD    3   TIME STEP    5
 
 SOLVING FOR HEAD 
                                                   Max.-Head-Change                         Max.-Flux-Residual
  Residual-Control   Outer-Iter.   Inner-Iter.     Column Row Layer    Maximum-Head-Change  Column Row Layer    Maximum-Flux-Residual          L2-NORM 
          0                 1           2             2    2     1       0.3235281548E-02       2    2    1         0.1689842331E+00      0.4640266983E+00
          0                 2           2             2    2     1      -0.3147050999E-03       2    2    1        -0.1689845172E-01      0.4613353853E-01
          0                 3           1             2    2     1       0.2143024668E-04       2    2    1         0.1182891873E-02      0.3204532040E-02

    ------------------------------------------------
       NWT REQUIRED            3 OUTER ITERATIONS 
       AND A TOTAL OF          5 INNER ITERATIONS.
    ------------------------------------------------

 NO OUTPUT CONTROL FOR STRESS PERIOD    3   TIME STEP    6
 
 SOLVING FOR HEAD 
                                                   Max.-Head-Change                         Max.-Flux-Residual
  Residual-Control   Outer-Iter.   Inner-Iter.     Column Row Layer    Maximum-Head-Change  Column Row Layer    Maximum-Flux-Residual          L2-NORM 
          0                 1           2             2    2     1       0.3213769433E-02       2    2    1         0.1678531571E+00      0.4544395855E+00
          0                 2           2             2    2     1      -0.3126125494E-03       2    2    1        -0.1678534359E-01      0.4520747157E-01
          0                 3           1             2    2     1       0.2128775162E-04       2    2    1         0.1174974290E-02      0.3143063201E-02

    ------------------------------------------------
       NWT REQUIRED            3 OUTER ITERATIONS 
       AND A TOTAL OF          5 INNER ITERATIONS.
    ------------------------------------------------

 NO OUTPUT CONTROL FOR STRESS PERIOD    3   TIME STEP    7
 
 SOLVING FOR HEAD 
                                                   Max.-Head-Change                         Max.-Flux-Residual
  Residual-Control   Outer-Iter.   Inner-Iter.     Column Row Layer    Maximum-Head-Change  Column Row Layer    Maximum-Flux-Residual          L2-NORM 
          0                 1           2             2    2     1       0.3192555266E-02       2    2    1         0.1667377764E+00      0.4457928585E+00
          0                 2           2             2    2     1      -0.3105489813E-03       2    2    1        -0.1667380498E-01      0.4437158309E-01
          0                 3           1             2    2     1       0.2114723041E-04       2    2    1         0.1167166594E-02      0.3087357644E-02

    ------------------------------------------------
       NWT REQUIRED            3 OUTER ITERATIONS 
       AND A TOTAL OF          5 INNER ITERATIONS.
    ------------------------------------------------

 NO OUTPUT CONTROL FOR STRESS PERIOD    3   TIME STEP    8
 
 SOLVING FOR HEAD 
                                                   Max.-Head-Change                         Max.-Flux-Residual
  Residual-Control   Outer-Iter.   Inner-Iter.     Column Row Layer    Maximum-Head-Change  Column Row Layer    Maximum-Flux-Residual          L2-NORM 
          0                 1           2             2    2     1       0.3171549517E-02       2    2    1         0.1656334081E+00      0.4379819802E+00
          0                 2           2             2    2     1      -0.3085056880E-03       2    2    1        -0.1656336768E-01      0.4361541002E-01
          0                 3           1             2    2     1       0.2100809020E-04       2    2    1         0.1159436005E-02      0.3036359595E-02

    ------------------------------------------------
       NWT REQUIRED            3 OUTER ITERATIONS 
       AND A TOTAL OF          5 INNER ITERATIONS.
    ------------------------------------------------

 NO OUTPUT CONTROL FOR STRESS PERIOD    3   TIME STEP    9
 
 SOLVING FOR HEAD 
                                                   Max.-Head-Change                         Max.-Flux-Residual
  Residual-Control   Outer-Iter.   Inner-Iter.     Column Row Layer    Maximum-Head-Change  Column Row Layer    Maximum-Flux-Residual          L2-NORM 
          0                 1           2             2    2     1       0.3150918695E-02       2    2    1         0.1645487178E+00      0.4309014827E+00
          0                 2           2             2    2     1      -0.3064988638E-03       2    2    1        -0.1645489814E-01      0.4292972511E-01
          0                 3           1             2    2     1       0.2087143268E-04       2    2    1         0.1151843134E-02      0.2990577417E-02

    ------------------------------------------------
       NWT REQUIRED            3 OUTER ITERATIONS 
       AND A TOTAL OF          5 INNER ITERATIONS.
    ------------------------------------------------

 NO OUTPUT CONTROL FOR STRESS PERIOD    3   TIME STEP   10
 
 SOLVING FOR HEAD 
                                                   Max.-Head-Change                         Max.-Flux-Residual
  Residual-Control   Outer-Iter.   Inner-Iter.     Column Row Layer    Maximum-Head-Change  Column Row Layer    Maximum-Flux-Residual          L2-NORM 
          0                 1           2             2    2     1       0.3130487481E-02       2    2    1         0.1634745952E+00      0.4244589616E+00
          0                 2           2             2    2     1      -0.3045114568E-03       2    2    1        -0.1634748542E-01      0.4230618474E-01
          0                 3           1             2    2     1       0.2073609746E-04       2    2    1         0.1144324234E-02      0.2950700135E-02

    ------------------------------------------------
       NWT REQUIRED            3 OUTER ITERATIONS 
       AND A TOTAL OF          5 INNER ITERATIONS.
    ------------------------------------------------

 NO OUTPUT CONTROL FOR STRESS PERIOD    3   TIME STEP   11
 
 SOLVING FOR HEAD 
                                                   Max.-Head-Change                         Max.-Flux-Residual
  Residual-Control   Outer-Iter.   Inner-Iter.     Column Row Layer    Maximum-Head-Change  Column Row Layer    Maximum-Flux-Residual          L2-NORM 
          0                 1           2             2    2     1       0.3110422235E-02       2    2    1         0.1624196942E+00      0.4185889498E+00
          0                 2           2             2    2     1      -0.3025596483E-03       2    2    1        -0.1624199484E-01      0.4173531306E-01
          0                 3           1             2    2     1       0.2060318672E-04       2    2    1         0.1136939903E-02      0.2910143635E-02

    ------------------------------------------------
       NWT REQUIRED            3 OUTER ITERATIONS 
       AND A TOTAL OF          5 INNER ITERATIONS.
    ------------------------------------------------

 NO OUTPUT CONTROL FOR STRESS PERIOD    3   TIME STEP   12
 
 SOLVING FOR HEAD 
                                                   Max.-Head-Change                         Max.-Flux-Residual
  Residual-Control   Outer-Iter.   Inner-Iter.     Column Row Layer    Maximum-Head-Change  Column Row Layer    Maximum-Flux-Residual          L2-NORM 
          0                 1           2             2    2     1       0.3090548088E-02       2    2    1         0.1613748959E+00      0.4132170316E+00
          0                 2           2             2    2     1      -0.3006264288E-03       2    2    1        -0.1613751454E-01      0.4121298117E-01
          0                 3           1             2    2     1       0.2047154171E-04       2    2    1         0.1129626278E-02      0.2874902546E-02

    ------------------------------------------------
       NWT REQUIRED            3 OUTER ITERATIONS 
       AND A TOTAL OF          5 INNER ITERATIONS.
    ------------------------------------------------

 NO OUTPUT CONTROL FOR STRESS PERIOD    3   TIME STEP   13
 
 SOLVING FOR HEAD 
                                                   Max.-Head-Change                         Max.-Flux-Residual
  Residual-Control   Outer-Iter.   Inner-Iter.     Column Row Layer    Maximum-Head-Change  Column Row Layer    Maximum-Flux-Residual          L2-NORM 
          0                 1           2             2    2     1       0.3070946317E-02       2    2    1         0.1603444421E+00      0.4082878673E+00
          0                 2           2             2    2     1      -0.2987197035E-03       2    2    1        -0.1603446870E-01      0.4073324610E-01
          0                 3           1             2    2     1       0.2034170062E-04       2    2    1         0.1122413053E-02      0.2842694245E-02

    ------------------------------------------------
       NWT REQUIRED            3 OUTER ITERATIONS 
       AND A TOTAL OF          5 INNER ITERATIONS.
    ------------------------------------------------

 NO OUTPUT CONTROL FOR STRESS PERIOD    3   TIME STEP   14
 
 SOLVING FOR HEAD 
                                                   Max.-Head-Change                         Max.-Flux-Residual
  Residual-Control   Outer-Iter.   Inner-Iter.     Column Row Layer    Maximum-Head-Change  Column Row Layer    Maximum-Flux-Residual          L2-NORM 
          0                 1           2             2    2     1       0.3051612636E-02       2    2    1         0.1593281106E+00      0.4037431457E+00
          0                 2           2             2    2     1      -0.2968390570E-03       2    2    1        -0.1593283511E-01      0.4029055032E-01
          0                 3           1             2    2     1       0.2021363553E-04       2    2    1         0.1115298705E-02      0.2812722266E-02

    ------------------------------------------------
       NWT REQUIRED            3 OUTER ITERATIONS 
       AND A TOTAL OF          5 INNER ITERATIONS.
    ------------------------------------------------

 NO OUTPUT CONTROL FOR STRESS PERIOD    3   TIME STEP   15
 
 SOLVING FOR HEAD 
                                                   Max.-Head-Change                         Max.-Flux-Residual
  Residual-Control   Outer-Iter.   Inner-Iter.     Column Row Layer    Maximum-Head-Change  Column Row Layer    Maximum-Flux-Residual          L2-NORM 
          0                 1           2             2    2     1       0.3032543282E-02       2    2    1         0.1583256794E+00      0.3995412162E+00
          0                 2           2             2    2     1      -0.2949841231E-03       2    2    1        -0.1583259159E-01      0.3988016270E-01
          0                 3           1             2    2     1       0.2008732183E-04       2    2    1         0.1108281673E-02      0.2785617360E-02

    ------------------------------------------------
       NWT REQUIRED            3 OUTER ITERATIONS 
       AND A TOTAL OF          5 INNER ITERATIONS.
    ------------------------------------------------

 NO OUTPUT CONTROL FOR STRESS PERIOD    3   TIME STEP   16
 
 SOLVING FOR HEAD 
                                                   Max.-Head-Change                         Max.-Flux-Residual
  Residual-Control   Outer-Iter.   Inner-Iter.     Column Row Layer    Maximum-Head-Change  Column Row Layer    Maximum-Flux-Residual          L2-NORM 
          0                 1           2             2    2     1       0.3013648836E-02       2    2    1         0.1573325165E+00      0.3956471881E+00
          0                 2           2             2    2     1      -0.2931462021E-03       2    2    1        -0.1573327488E-01      0.3949641397E-01
          0                 3           1             2    2     1       0.1996216663E-04       2    2    1         0.1101329502E-02      0.2755811634E-02

    ------------------------------------------------
       NWT REQUIRED            3 OUTER ITERATIONS 
       AND A TOTAL OF          5 INNER ITERATIONS.
    ------------------------------------------------

 NO OUTPUT CONTROL FOR STRESS PERIOD    3   TIME STEP   17
 
 SOLVING FOR HEAD 
                                                   Max.-Head-Change                         Max.-Flux-Residual
  Residual-Control   Outer-Iter.   Inner-Iter.     Column Row Layer    Maximum-Head-Change  Column Row Layer    Maximum-Flux-Residual          L2-NORM 
          0                 1           2             2    2     1       0.2995087305E-02       2    2    1         0.1563568164E+00      0.3920193915E+00
          0                 2           2             2    2     1      -0.2913406650E-03       2    2    1        -0.1563570445E-01      0.3914500190E-01
          0                 3           1             2    2     1       0.1983921558E-04       2    2    1         0.1094499563E-02      0.2735207009E-02

    ------------------------------------------------
       NWT REQUIRED            3 OUTER ITERATIONS 
       AND A TOTAL OF          5 INNER ITERATIONS.
    ------------------------------------------------

 NO OUTPUT CONTROL FOR STRESS PERIOD    3   TIME STEP   18
 
 SOLVING FOR HEAD 
                                                   Max.-Head-Change                         Max.-Flux-Residual
  Residual-Control   Outer-Iter.   Inner-Iter.     Column Row Layer    Maximum-Head-Change  Column Row Layer    Maximum-Flux-Residual          L2-NORM 
          0                 1           2             2    2     1       0.2976702302E-02       2    2    1         0.1553904630E+00      0.3886479850E+00
          0                 2           2             2    2     1      -0.2895522996E-03       2    2    1        -0.1553906870E-01      0.3881390928E-01
          0                 3           1             2    2     1       0.1971743511E-04       2    2    1         0.1087735078E-02      0.2712265260E-02

    ------------------------------------------------
       NWT REQUIRED            3 OUTER ITERATIONS 
       AND A TOTAL OF          5 INNER ITERATIONS.
    ------------------------------------------------

 NO OUTPUT CONTROL FOR STRESS PERIOD    3   TIME STEP   19
 
 SOLVING FOR HEAD 
                                                   Max.-Head-Change                         Max.-Flux-Residual
  Residual-Control   Outer-Iter.   Inner-Iter.     Column Row Layer    Maximum-Head-Change  Column Row Layer    Maximum-Flux-Residual          L2-NORM 
          0                 1           2             2    2     1       0.2958566594E-02       2    2    1         0.1544372196E+00      0.3854776506E+00
          0                 2           2             2    2     1      -0.2877881838E-03       2    2    1        -0.1544374397E-01      0.3850338209E-01
          0                 3           1             2    2     1       0.1959730520E-04       2    2    1         0.1081062347E-02      0.2691132282E-02

    ------------------------------------------------
       NWT REQUIRED            3 OUTER ITERATIONS 
       AND A TOTAL OF          5 INNER ITERATIONS.
    ------------------------------------------------

 NO OUTPUT CONTROL FOR STRESS PERIOD    3   TIME STEP   20
 
 SOLVING FOR HEAD 
                                                   Max.-Head-Change                         Max.-Flux-Residual
  Residual-Control   Outer-Iter.   Inner-Iter.     Column Row Layer    Maximum-Head-Change  Column Row Layer    Maximum-Flux-Residual          L2-NORM 
          0                 1           2             2    2     1       0.2940676291E-02       2    2    1         0.1534969020E+00      0.3824967631E+00
          0                 2           2             2    2     1      -0.2860479393E-03       2    2    1        -0.1534971185E-01      0.3821119447E-01
          0                 3           1             2    2     1       0.1947880076E-04       2    2    1         0.1074480083E-02      0.2674487834E-02

    ------------------------------------------------
       NWT REQUIRED            3 OUTER ITERATIONS 
       AND A TOTAL OF          5 INNER ITERATIONS.
    ------------------------------------------------

 NO OUTPUT CONTROL FOR STRESS PERIOD    3   TIME STEP   21
 
 SOLVING FOR HEAD 
                                                   Max.-Head-Change                         Max.-Flux-Residual
  Residual-Control   Outer-Iter.   Inner-Iter.     Column Row Layer    Maximum-Head-Change  Column Row Layer    Maximum-Flux-Residual          L2-NORM 
          0                 1           2             2    2     1       0.2923027634E-02       2    2    1         0.1525693083E+00      0.3797023744E+00
          0                 2           2             2    2     1      -0.2843312006E-03       2    2    1        -0.1525695208E-01      0.3793533718E-01
          0                 3           1             2    2     1       0.1936189766E-04       2    2    1         0.1067986913E-02      0.2652338412E-02

    ------------------------------------------------
       NWT REQUIRED            3 OUTER ITERATIONS 
       AND A TOTAL OF          5 INNER ITERATIONS.
    ------------------------------------------------

 NO OUTPUT CONTROL FOR STRESS PERIOD    3   TIME STEP   22
 
 SOLVING FOR HEAD 
                                                   Max.-Head-Change                         Max.-Flux-Residual
  Residual-Control   Outer-Iter.   Inner-Iter.     Column Row Layer    Maximum-Head-Change  Column Row Layer    Maximum-Flux-Residual          L2-NORM 
          0                 1           2             2    2     1       0.2905616549E-02       2    2    1         0.1516542438E+00      0.3770551376E+00
          0                 2           2             2    2     1      -0.2826375715E-03       2    2    1        -0.1516544528E-01      0.3767442254E-01
          0                 3           1             2    2     1       0.1924656772E-04       2    2    1         0.1061581431E-02      0.2634468838E-02

    ------------------------------------------------
       NWT REQUIRED            3 OUTER ITERATIONS 
       AND A TOTAL OF          5 INNER ITERATIONS.
    ------------------------------------------------

 NO OUTPUT CONTROL FOR STRESS PERIOD    3   TIME STEP   23
 
 SOLVING FOR HEAD 
                                                   Max.-Head-Change                         Max.-Flux-Residual
  Residual-Control   Outer-Iter.   Inner-Iter.     Column Row Layer    Maximum-Head-Change  Column Row Layer    Maximum-Flux-Residual          L2-NORM 
          0                 1           2             2    2     1       0.2888355525E-02       2    2    1         0.1507470597E+00      0.3745452425E+00
          0                 2           2             2    2     1      -0.2809585392E-03       2    2    1        -0.1507472653E-01      0.3742716415E-01
          0                 3           1             2    2     1       0.1913223181E-04       2    2    1         0.1055231121E-02      0.2617556667E-02

    ------------------------------------------------
       NWT REQUIRED            3 OUTER ITERATIONS 
       AND A TOTAL OF          5 INNER ITERATIONS.
    ------------------------------------------------

 NO OUTPUT CONTROL FOR STRESS PERIOD    3   TIME STEP   24
 
 SOLVING FOR HEAD 
                                                   Max.-Head-Change                         Max.-Flux-Residual
  Residual-Control   Outer-Iter.   Inner-Iter.     Column Row Layer    Maximum-Head-Change  Column Row Layer    Maximum-Flux-Residual          L2-NORM 
          0                 1           2             2    2     1       0.2871411094E-02       2    2    1         0.1498565308E+00      0.3721679668E+00
          0                 2           2             2    2     1      -0.2793103026E-03       2    2    1        -0.1498567328E-01      0.3719256404E-01
          0                 3           1             2    2     1       0.1901999306E-04       2    2    1         0.1048997389E-02      0.2601329861E-02

    ------------------------------------------------
       NWT REQUIRED            3 OUTER ITERATIONS 
       AND A TOTAL OF          5 INNER ITERATIONS.
    ------------------------------------------------

 NO OUTPUT CONTROL FOR STRESS PERIOD    3   TIME STEP   25
 
 SOLVING FOR HEAD 
                                                   Max.-Head-Change                         Max.-Flux-Residual
  Residual-Control   Outer-Iter.   Inner-Iter.     Column Row Layer    Maximum-Head-Change  Column Row Layer    Maximum-Flux-Residual          L2-NORM 
          0                 1           2             2    2     1       0.2854608839E-02       2    2    1         0.1489735422E+00      0.3699008647E+00
          0                 2           2             2    2     1      -0.2776758966E-03       2    2    1        -0.1489737409E-01      0.3696848467E-01
          0                 3           1             2    2     1       0.1890869651E-04       2    2    1         0.1042816454E-02      0.2585969685E-02

    ------------------------------------------------
       NWT REQUIRED            3 OUTER ITERATIONS 
       AND A TOTAL OF          5 INNER ITERATIONS.
    ------------------------------------------------

 NO OUTPUT CONTROL FOR STRESS PERIOD    3   TIME STEP   26
 
 SOLVING FOR HEAD 
                                                   Max.-Head-Change                         Max.-Flux-Residual
  Residual-Control   Outer-Iter.   Inner-Iter.     Column Row Layer    Maximum-Head-Change  Column Row Layer    Maximum-Flux-Residual          L2-NORM 
          0                 1           2             2    2     1       0.2838116139E-02       2    2    1         0.1481068002E+00      0.3677398061E+00
          0                 2           2             2    2     1      -0.2760716010E-03       2    2    1        -0.1481069955E-01      0.3675468798E-01
          0                 3           1             2    2     1       0.1879944954E-04       2    2    1         0.1036749217E-02      0.2571080409E-02

    ------------------------------------------------
       NWT REQUIRED            3 OUTER ITERATIONS 
       AND A TOTAL OF          5 INNER ITERATIONS.
    ------------------------------------------------

 NO OUTPUT CONTROL FOR STRESS PERIOD    3   TIME STEP   27
 
 SOLVING FOR HEAD 
                                                   Max.-Head-Change                         Max.-Flux-Residual
  Residual-Control   Outer-Iter.   Inner-Iter.     Column Row Layer    Maximum-Head-Change  Column Row Layer    Maximum-Flux-Residual          L2-NORM 
          0                 1           2             2    2     1       0.2821759410E-02       2    2    1         0.1472472332E+00      0.3656789512E+00
          0                 2           2             2    2     1      -0.2744805327E-03       2    2    1        -0.1472474252E-01      0.3655091365E-01
          0                 3           1             2    2     1       0.1869110407E-04       2    2    1         0.1030732238E-02      0.2557116783E-02

    ------------------------------------------------
       NWT REQUIRED            3 OUTER ITERATIONS 
       AND A TOTAL OF          5 INNER ITERATIONS.
    ------------------------------------------------

 NO OUTPUT CONTROL FOR STRESS PERIOD    3   TIME STEP   28
 
 SOLVING FOR HEAD 
                                                   Max.-Head-Change                         Max.-Flux-Residual
  Residual-Control   Outer-Iter.   Inner-Iter.     Column Row Layer    Maximum-Head-Change  Column Row Layer    Maximum-Flux-Residual          L2-NORM 
          0                 1           2             2    2     1       0.2805620490E-02       2    2    1         0.1463991537E+00      0.3637081530E+00
          0                 2           2             2    2     1      -0.2729106512E-03       2    2    1        -0.1463993426E-01      0.3635564024E-01
          0                 3           1             2    2     1       0.1858420112E-04       2    2    1         0.1024795671E-02      0.2543555090E-02

    ------------------------------------------------
       NWT REQUIRED            3 OUTER ITERATIONS 
       AND A TOTAL OF          5 INNER ITERATIONS.
    ------------------------------------------------

 NO OUTPUT CONTROL FOR STRESS PERIOD    3   TIME STEP   29
 
 SOLVING FOR HEAD 
                                                   Max.-Head-Change                         Max.-Flux-Residual
  Residual-Control   Outer-Iter.   Inner-Iter.     Column Row Layer    Maximum-Head-Change  Column Row Layer    Maximum-Flux-Residual          L2-NORM 
          0                 1           2             4   13     1       0.4709135787E-02       4   13    1         0.2696368487E+00      0.6974160910E+00
          0                 2           2             2    2     1      -0.4535413459E-03       4   13    1        -0.2668066273E-01      0.6881901713E-01
          0                 3           1             2    2     1       0.3088447577E-04       4   13    1         0.1840013495E-02      0.4731378929E-02

    ------------------------------------------------
       NWT REQUIRED            3 OUTER ITERATIONS 
       AND A TOTAL OF          5 INNER ITERATIONS.
    ------------------------------------------------

 NO OUTPUT CONTROL FOR STRESS PERIOD    3   TIME STEP   30



 STREAM LISTING     PERIOD      3   STEP       30

 LAYER ROW COL. STREAM  RCH.  FLOW INTO     FLOW TO   FLOW OUT OF   OVRLND.     DIRECT     STREAM       STREAM     STREAM     STREAM   STREAMBED  STREAMBED
                SEG.NO.  NO.  STRM. RCH.    AQUIFER    STRM. RCH.    RUNOFF     PRECIP       ET          HEAD       DEPTH      WIDTH   CONDCTNC.   GRADIENT

   1    1    1     1     1    2.7188E+01  2.5503E-01   2.6933E+01  0.000E+00  0.000E+00  0.000E+00  1.09426E+03  1.210E+00  1.346E+01  6.058E-02  1.403E+00
   1    2    2     1     2    2.6933E+01  3.9447E-01   2.6539E+01  0.000E+00  0.000E+00  0.000E+00  1.08926E+03  1.205E+00  1.340E+01  9.380E-02  1.402E+00
   1    3    3     1     3    2.6539E+01  3.3594E-01   2.6203E+01  0.000E+00  0.000E+00  0.000E+00  1.08362E+03  1.200E+00  1.333E+01  7.998E-02  1.400E+00
   1    3    4     1     4    2.6203E+01  3.0895E-01   2.5894E+01  0.000E+00  0.000E+00  0.000E+00  1.07860E+03  1.196E+00  1.327E+01  7.364E-02  1.399E+00
   1    4    5     2     1    2.3894E+01  3.2529E-01   2.3568E+01  0.000E+00  0.000E+00  0.000E+00  1.07310E+03  1.170E+00  1.200E+01  7.800E-02  1.390E+00
   1    5    6     2     2    2.3568E+01  2.4971E-01   2.3319E+01  0.000E+00  0.000E+00  0.000E+00  1.06767E+03  1.162E+00  1.200E+01  6.000E-02  1.387E+00
   1    6    6     2     3    2.3319E+01  2.4927E-01   2.3069E+01  0.000E+00  0.000E+00  0.000E+00  1.06295E+03  1.154E+00  1.200E+01  6.000E-02  1.385E+00
   1    7    6     2     4    2.3069E+01  2.4882E-01   2.2821E+01  0.000E+00  0.000E+00  0.000E+00  1.05822E+03  1.147E+00  1.200E+01  6.000E-02  1.382E+00
   1    8    6     2     5    2.2821E+01  2.4837E-01   2.2572E+01  0.000E+00  0.000E+00  0.000E+00  1.05350E+03  1.140E+00  1.200E+01  6.000E-02  1.380E+00
   1    3    5     3     1    2.0000E+00  2.8252E-01   1.7175E+00  0.000E+00  0.000E+00  0.000E+00  1.07555E+03  1.909E+00  9.636E+00  7.227E-02  1.955E+00
   1    3    6     3     2    1.7175E+00  2.4905E-01   1.4684E+00  0.000E+00  0.000E+00  0.000E+00  1.07264E+03  1.727E+00  8.909E+00  6.682E-02  1.864E+00
   1    3    7     3     3    1.4684E+00  1.9718E-01   1.2712E+00  0.000E+00  0.000E+00  0.000E+00  1.06987E+03  1.555E+00  8.218E+00  5.547E-02  1.777E+00
   1    4    8     3     4    1.2712E+00  2.2567E-01   1.0456E+00  0.000E+00  0.000E+00  0.000E+00  1.06682E+03  1.364E+00  7.455E+00  6.709E-02  1.682E+00
   1    5    8     3     5    1.0456E+00  1.5790E-01   8.8768E-01  0.000E+00  0.000E+00  0.000E+00  1.06362E+03  1.164E+00  6.655E+00  4.991E-02  1.582E+00
   1    6    8     3     6    8.8768E-01  5.5980E-02   8.3170E-01  0.000E+00  0.000E+00  0.000E+00  1.06158E+03  1.036E+00  6.145E+00  1.844E-02  1.518E+00
   1    5   10     4     1    1.0000E+01  9.0919E-02   9.9091E+00  0.000E+00  0.000E+00  0.000E+00  1.07836E+03  6.368E-01  1.000E+01  2.500E-02  1.212E+00
   1    5    9     4     2    9.9091E+00  1.8158E-01   9.7275E+00  0.000E+00  0.000E+00  0.000E+00  1.07154E+03  6.315E-01  1.000E+01  5.000E-02  1.211E+00
   1    6    8     4     3    9.7275E+00  1.2689E-01   9.6006E+00  0.000E+00  0.000E+00  0.000E+00  1.06381E+03  6.256E-01  1.000E+01  3.500E-02  1.209E+00
   1    6    8     5     1    1.0432E+01  2.2686E-01   1.0205E+01  0.000E+00  0.000E+00  0.000E+00  1.05868E+03  6.790E-01  1.542E+01  6.166E-02  1.226E+00
   1    7    7     5     2    1.0205E+01  2.7894E-01   9.9265E+00  0.000E+00  0.000E+00  0.000E+00  1.05417E+03  6.732E-01  1.519E+01  7.594E-02  1.224E+00
   1    8    7     5     3    9.9265E+00  1.9221E-01   9.7343E+00  0.000E+00  0.000E+00  0.000E+00  1.04992E+03  6.676E-01  1.497E+01  5.241E-02  1.223E+00
   1    8    6     5     4    9.7343E+00  1.3577E-01   9.5985E+00  0.000E+00  0.000E+00  0.000E+00  1.04691E+03  6.637E-01  1.482E+01  3.706E-02  1.221E+00
   1    9    6     6     1    3.2171E+01  2.6502E-01   3.1906E+01  0.000E+00  0.000E+00  0.000E+00  1.04414E+03  1.417E+00  1.200E+01  6.000E-02  1.472E+00
   1   10    7     6     2    3.1906E+01  2.6460E-01   3.1641E+01  0.000E+00  0.000E+00  0.000E+00  1.03959E+03  1.410E+00  1.200E+01  6.000E-02  1.470E+00
   1   11    7     6     3    3.1641E+01  2.6418E-01   3.1377E+01  0.000E+00  0.000E+00  0.000E+00  1.03504E+03  1.403E+00  1.200E+01  6.000E-02  1.468E+00
   1   12    7     6     4    3.1377E+01  2.6375E-01   3.1113E+01  0.000E+00  0.000E+00  0.000E+00  1.03049E+03  1.396E+00  1.200E+01  6.000E-02  1.465E+00
   1   13    7     6     5    3.1113E+01  1.0995E-02   3.1102E+01  0.000E+00  0.000E+00  0.000E+00  1.02730E+03  1.392E+00  1.200E+01  2.400E-02  1.527E-01
   1   14    9     7     1    1.5000E+02  1.3665E+00   1.4863E+02  0.000E+00  0.000E+00  0.000E+00  1.03987E+03  2.288E+00  5.529E+01  5.593E-01  8.144E-01
   1   13    8     7     2    1.4863E+02  1.9191E+00   1.4671E+02  0.000E+00  0.000E+00  0.000E+00  1.03478E+03  2.279E+00  5.526E+01  6.148E-01  1.041E+00
   1   13    7     7     3    1.4671E+02  1.5891E+00   1.4513E+02  0.000E+00  0.000E+00  0.000E+00  1.02969E+03  2.270E+00  5.521E+01  5.584E-01  9.486E-01
   1   13    6     8     1    1.7623E+02  1.0561E+00   1.7517E+02  0.000E+00  0.000E+00  0.000E+00  1.02486E+03  2.989E+00  4.334E+01  4.416E-01  7.971E-01
   1   13    5     8     2    1.7517E+02  2.7870E-01   1.7489E+02  0.000E+00  0.000E+00  0.000E+00  1.01861E+03  2.985E+00  4.328E+01  4.410E-01  2.106E-01
   1   13    4     8     3    1.7489E+02 -1.9966E+00   1.7689E+02  0.000E+00  0.000E+00  0.000E+00  1.01237E+03  2.990E+00  4.336E+01  4.418E+00 -1.506E-01
   1   13    3     8     4    1.7689E+02 -3.3281E+00   1.8022E+02  0.000E+00  0.000E+00  0.000E+00  1.00613E+03  3.007E+00  4.360E+01  4.443E+00 -2.497E-01
   1   13    2     8     5    1.8022E+02 -2.3039E+00   1.8252E+02  0.000E+00  0.000E+00  0.000E+00  9.99900E+02  3.025E+00  4.386E+01  4.469E+00 -1.718E-01
   1   13    1     8     6    1.8252E+02 -1.8174E+00   1.8434E+02  0.000E+00  0.000E+00  0.000E+00  9.94913E+02  3.038E+00  4.405E+01  2.693E+00 -2.250E-01
   1    8    6     9     1    0.0000E+00  0.0000E+00   0.0000E+00  0.000E+00  0.000E+00  0.000E+00  1.07875E+03  0.000E+00  4.000E+00  0.000E+00  1.000E+00
   1    8    5     9     2    0.0000E+00  0.0000E+00   0.0000E+00  0.000E+00  0.000E+00  0.000E+00  1.07825E+03  0.000E+00  4.000E+00  0.000E+00  1.000E+00





UNSATURATED ZONE PACKAGE VOLUMETRIC BUDGET FOR  TIME STEP    30 STRESS PERIOD    3
  ------------------------------------------------------------------------------



     CUMULATIVE VOLUMES      L**3       RATES FOR THIS TIME STEP      L**3/T
     ------------------                 ------------------------

           IN:                                      IN:
           ---                                      ---
        INFILTRATION =    23256673.1162          INFILTRATION =           4.4075

          OUT:                                     OUT:
          ----                                     ----
              UZF ET =     3813499.7783                UZF ET =           0.7250
        UZF RECHARGE =       73224.0000          UZF RECHARGE =       0.0000E+00

            IN - OUT =    19369949.3379              IN - OUT =           3.6825

          STORAGE:                                 STORAGE:
          --------                                 --------
      STORAGE CHANGE =    19369949.2161        STORAGE CHANGE =           3.6825

 PERCENT DISCREPANCY IS DIFFERENCE BETWEEN IN-OUT MINUS CHANGE IN STORAGE
 DIVIDED BY THE AVERAGE OF IN AND OUT TIMES 100

 PERCENT DISCREPANCY =           0.00     PERCENT DISCREPANCY =           0.00






1
  VOLUMETRIC BUDGET FOR AGRICULTURAL FIELDS AT  END OF TIME STEP   30, STRESS PERIOD   3
  ------------------------------------------------------------------------------

     CUMULATIVE VOLUMES      L**3       RATES FOR THIS TIME STEP      L**3/T
     ------------------                 ------------------------

           IN:                                      IN:
           ---                                      ---
               AG WELLS  =           0.0000                 AG WELLS  =           0.0000
      DIVERSION SEGMENTS =           0.0000        DIVERSION SEGMENTS =           0.0000
           GW IRRIGATION =           0.0000             GW IRRIGATION =           0.0000
           SW IRRIGATION =           0.0000             SW IRRIGATION =           0.0000
        SYSTEM LOSSES GW =           0.0000          SYSTEM LOSSES GW =           0.0000
        SYSTEM LOSSES SW =           0.0000          SYSTEM LOSSES SW =           0.0000

                TOTAL IN =           0.0000                  TOTAL IN =           0.0000

          OUT:                                     OUT:
          ----                                     ----
               AG WELLS  =           0.0000                 AG WELLS  =           0.0000
      DIVERSION SEGMENTS =           0.0000        DIVERSION SEGMENTS =           0.0000
           GW IRRIGATION =           0.0000             GW IRRIGATION =           0.0000
           SW IRRIGATION =           0.0000             SW IRRIGATION =           0.0000
        SYSTEM LOSSES GW =           0.0000          SYSTEM LOSSES GW =           0.0000
        SYSTEM LOSSES SW =           0.0000          SYSTEM LOSSES SW =           0.0000

               TOTAL OUT =           0.0000                 TOTAL OUT =           0.0000

                IN - OUT =           0.0000                  IN - OUT =           0.0000

     PERCENT DISCREPANCY =           0.00         PERCENT DISCREPANCY =           0.00



1
  VOLUMETRIC BUDGET FOR ENTIRE MODEL AT END OF TIME STEP   30, STRESS PERIOD   3
  ------------------------------------------------------------------------------

     CUMULATIVE VOLUMES      L**3       RATES FOR THIS TIME STEP      L**3/T
     ------------------                 ------------------------

           IN:                                      IN:
           ---                                      ---
             STORAGE     =     3101464.7500               STORAGE     =           0.4931
       CONSTANT HEAD     =           0.0000         CONSTANT HEAD     =           0.0000
     HEAD DEP BOUNDS     =     1538702.5000       HEAD DEP BOUNDS     =           0.2878
      STREAM LEAKAGE     =    60993760.0000        STREAM LEAKAGE     =          12.2952
        UZF RECHARGE     =       73223.9531          UZF RECHARGE     =           0.0000
               GW ET     =           0.0000                 GW ET     =           0.0000
     SURFACE LEAKAGE     =           0.0000       SURFACE LEAKAGE     =           0.0000
           AG WELLS      =           0.0000             AG WELLS      =           0.0000

                TOTAL IN =    65707152.0000                  TOTAL IN =          13.0762

          OUT:                                     OUT:
          ----                                     ----
             STORAGE     =     9831363.0000               STORAGE     =           3.3427
       CONSTANT HEAD     =           0.0000         CONSTANT HEAD     =           0.0000
     HEAD DEP BOUNDS     =     1536322.6250       HEAD DEP BOUNDS     =           0.2883
      STREAM LEAKAGE     =    54341364.0000        STREAM LEAKAGE     =           9.4460
        UZF RECHARGE     =           0.0000          UZF RECHARGE     =           0.0000
               GW ET     =           0.0000                 GW ET     =           0.0000
     SURFACE LEAKAGE     =           0.0000       SURFACE LEAKAGE     =           0.0000
           AG WELLS      =           0.0000             AG WELLS      =           0.0000

               TOTAL OUT =    65709048.0000                 TOTAL OUT =          13.0770

                IN - OUT =       -1896.0000                  IN - OUT =      -8.0872E-04

     PERCENT DISCREPANCY =          -0.00         PERCENT DISCREPANCY =          -0.01






         TIME SUMMARY AT END OF TIME STEP   30 IN STRESS PERIOD    3
                    SECONDS     MINUTES      HOURS       DAYS        YEARS
                    -----------------------------------------------------------
   TIME STEP LENGTH  87667.      1461.1      24.352      1.0147     2.77799E-03
 STRESS PERIOD TIME 2.63000E+06  43833.      730.56      30.440     8.33397E-02
         TOTAL TIME 5.34640E+06  89107.      1485.1      61.880     0.16942    
1
1
                            STRESS PERIOD NO.    4, LENGTH =   2630000.    
                            -----------------------------------------------

                              NUMBER OF TIME STEPS =    30

                               MULTIPLIER FOR DELT =     1.000

                            INITIAL TIME STEP SIZE =   87666.66    

 REUSING NON-PARAMETER GHB CELLS FROM LAST STRESS PERIOD

      2 GHB CELLS

 REUSING STREAM SEGMENT DATA FROM LAST STRESS PERIOD



            AREAL INFILTRATION RATE
 READING ON UNIT   19 WITH FORMAT: (10F4.0)            

            1           2           3           4           5           6           7           8           9          10
 ........................................................................................................................
   1   1.2000E-09   0.000       0.000       0.000       0.000       0.000       0.000       0.000       0.000       0.000    
   2   2.1000E-09  2.0000E-09  8.0000E-10  8.5000E-09   0.000       0.000       0.000       0.000       0.000       0.000    
   3   5.0000E-10  1.1000E-09  8.8000E-09  5.5000E-09   0.000       0.000       0.000       0.000       0.000       0.000    
   4   8.5000E-09  1.1000E-09  1.1000E-09  1.1000E-09  2.0000E-09   0.000       0.000       0.000       0.000       0.000    
   5   8.5000E-09  1.1000E-09  1.1000E-09  1.1000E-09  1.1000E-09   0.000       0.000       0.000       0.000       0.000    
   6   8.5000E-09  5.2000E-09  2.1000E-09  1.1000E-09  1.5000E-09   0.000       0.000       0.000       0.000       0.000    
   7   8.5000E-09  5.2000E-09  2.1000E-09  1.2000E-09  2.0000E-09   0.000       0.000       0.000       0.000       0.000    
   8   5.0000E-10  5.2000E-09  2.1000E-09  1.2000E-09  5.0000E-09   0.000       0.000       0.000       0.000       0.000    
   9   5.0000E-10  5.2000E-09  2.1000E-09  1.2000E-09  5.0000E-09   0.000       0.000       0.000       0.000       0.000    
  10   5.0000E-10  5.2000E-09  2.1000E-09  1.2000E-09  5.8000E-09   0.000       0.000       0.000       0.000       0.000    
  11   1.0000E-10  1.1000E-09  1.1000E-09  1.2000E-09  5.0000E-09   0.000       0.000       0.000       0.000       0.000    
  12   1.1000E-09  1.1000E-09  1.1000E-09  1.1000E-09  2.0000E-09   0.000       0.000       0.000       0.000       0.000    
  13   1.1000E-09  2.2000E-09  2.2000E-09  2.1000E-09  1.0000E-09   0.000       0.000       0.000       0.000       0.000    
  14   2.0000E-10  5.5000E-09  5.5000E-09  5.2000E-09  1.0000E-09   0.000       0.000       0.000       0.000       0.000    
  15    0.000      8.8000E-09  8.8000E-09   0.000       0.000       0.000       0.000       0.000       0.000       0.000    

                  ET RATE =  5.000000E-10

 USING ET EXTINCTION DEPTH FROM PREVIOUS STRESS PERIOD. CURRENT PERIOD IS:       4

 USING EXTINCTION WATER CONTENT FROM PREVIOUS STRESS PERIOD. CURRENT PERIOD IS:       4

 USING AIR ENTRY PRESSURE FROM PREVIOUS STRESS PERIOD. CURRENT PERIOD IS:       4

 USING ROOT PRESSURE HEAD FROM PREVIOUS STRESS PERIOD. CURRENT PERIOD IS:       4

 USING ROOT ACTIVITY FROM PREVIOUS STRESS PERIOD. CURRENT PERIOD IS:       4

 PROCESSING AG STRESS PERIOD DATA

 READING AG STRESS PERIOD DATA

 READING IRRIGATION SEGMENT

 READING IRRIGATION WELL

 READING SUPPLEMENTAL WELL

 END PROCESSING AG STRESS PERIOD DATA OPTIONS
 
 SOLVING FOR HEAD 
                                                   Max.-Head-Change                         Max.-Flux-Residual
  Residual-Control   Outer-Iter.   Inner-Iter.     Column Row Layer    Maximum-Head-Change  Column Row Layer    Maximum-Flux-Residual          L2-NORM 
          0                 1           2             4   13     1       0.4940256429E-02       4   13    1         0.2828336750E+00      0.7295622726E+00
          0                 2           2             4   13     1      -0.4754237852E-03       4   13    1        -0.2798478083E-01      0.7195857241E-01
          0                 3           1             2    2     1       0.3214211801E-04       4   13    1         0.1929798420E-02      0.4944689143E-02

    ------------------------------------------------
       NWT REQUIRED            3 OUTER ITERATIONS 
       AND A TOTAL OF          5 INNER ITERATIONS.
    ------------------------------------------------

 NO OUTPUT CONTROL FOR STRESS PERIOD    4   TIME STEP    1
 
 SOLVING FOR HEAD 
                                                   Max.-Head-Change                         Max.-Flux-Residual
  Residual-Control   Outer-Iter.   Inner-Iter.     Column Row Layer    Maximum-Head-Change  Column Row Layer    Maximum-Flux-Residual          L2-NORM 
          0                 1           2             2    2     1       0.4822158127E-02       4   13    1         0.2567875754E+00      0.7019733289E+00
          0                 2           2             2    2     1      -0.4690654015E-03       4   13    1        -0.2540533821E-01      0.6931298440E-01
          0                 3           1             2    2     1       0.3194160581E-04       2    2    1         0.1762315277E-02      0.4770416523E-02

    ------------------------------------------------
       NWT REQUIRED            3 OUTER ITERATIONS 
       AND A TOTAL OF          5 INNER ITERATIONS.
    ------------------------------------------------

 NO OUTPUT CONTROL FOR STRESS PERIOD    4   TIME STEP    2
 
 SOLVING FOR HEAD 
                                                   Max.-Head-Change                         Max.-Flux-Residual
  Residual-Control   Outer-Iter.   Inner-Iter.     Column Row Layer    Maximum-Head-Change  Column Row Layer    Maximum-Flux-Residual          L2-NORM 
          0                 1           2             2    2     1       0.4792218813E-02       2    2    1         0.2501847493E+00      0.6774938843E+00
          0                 2           2             2    2     1      -0.4661531065E-03       2    2    1        -0.2501853423E-01      0.6696553959E-01
          0                 3           1             2    2     1       0.3174328970E-04       2    2    1         0.1751297593E-02      0.4614768228E-02

    ------------------------------------------------
       NWT REQUIRED            3 OUTER ITERATIONS 
       AND A TOTAL OF          5 INNER ITERATIONS.
    ------------------------------------------------

 NO OUTPUT CONTROL FOR STRESS PERIOD    4   TIME STEP    3
 
 SOLVING FOR HEAD 
                                                   Max.-Head-Change                         Max.-Flux-Residual
  Residual-Control   Outer-Iter.   Inner-Iter.     Column Row Layer    Maximum-Head-Change  Column Row Layer    Maximum-Flux-Residual          L2-NORM 
          0                 1           2             2    2     1       0.4762605471E-02       2    2    1         0.2486279909E+00      0.6557713487E+00
          0                 2           2             2    2     1      -0.4632725198E-03       2    2    1        -0.2486285733E-01      0.6488407506E-01
          0                 3           1             2    2     1       0.3154713253E-04       2    2    1         0.1740400208E-02      0.4478185350E-02

    ------------------------------------------------
       NWT REQUIRED            3 OUTER ITERATIONS 
       AND A TOTAL OF          5 INNER ITERATIONS.
    ------------------------------------------------

 NO OUTPUT CONTROL FOR STRESS PERIOD    4   TIME STEP    4
 
 SOLVING FOR HEAD 
                                                   Max.-Head-Change                         Max.-Flux-Residual
  Residual-Control   Outer-Iter.   Inner-Iter.     Column Row Layer    Maximum-Head-Change  Column Row Layer    Maximum-Flux-Residual          L2-NORM 
          0                 1           2             2    2     1       0.4733482239E-02       2    2    1         0.2470970108E+00      0.6364935214E+00
          0                 2           2             2    2     1      -0.4604396079E-03       2    2    1        -0.2470975830E-01      0.6303681786E-01
          0                 3           1             2    2     1       0.3135422180E-04       2    2    1         0.1729683279E-02      0.4356164970E-02

    ------------------------------------------------
       NWT REQUIRED            3 OUTER ITERATIONS 
       AND A TOTAL OF          5 INNER ITERATIONS.
    ------------------------------------------------

 NO OUTPUT CONTROL FOR STRESS PERIOD    4   TIME STEP    5
 
 SOLVING FOR HEAD 
                                                   Max.-Head-Change                         Max.-Flux-Residual
  Residual-Control   Outer-Iter.   Inner-Iter.     Column Row Layer    Maximum-Head-Change  Column Row Layer    Maximum-Flux-Residual          L2-NORM 
          0                 1           2             2    2     1       0.4704672246E-02       2    2    1         0.2455825651E+00      0.6193636568E+00
          0                 2           2             2    2     1      -0.4576371664E-03       2    2    1        -0.2455831273E-01      0.6139578013E-01
          0                 3           1             2    2     1       0.3116338622E-04       2    2    1         0.1719082110E-02      0.4247375233E-02

    ------------------------------------------------
       NWT REQUIRED            3 OUTER ITERATIONS 
       AND A TOTAL OF          5 INNER ITERATIONS.
    ------------------------------------------------

 NO OUTPUT CONTROL FOR STRESS PERIOD    4   TIME STEP    6
 
 SOLVING FOR HEAD 
                                                   Max.-Head-Change                         Max.-Flux-Residual
  Residual-Control   Outer-Iter.   Inner-Iter.     Column Row Layer    Maximum-Head-Change  Column Row Layer    Maximum-Flux-Residual          L2-NORM 
          0                 1           2             2    2     1       0.4676255243E-02       2    2    1         0.2440887991E+00      0.6041381169E+00
          0                 2           2             2    2     1      -0.4548729520E-03       2    2    1        -0.2440893516E-01      0.5993800517E-01
          0                 3           1             2    2     1       0.3097515358E-04       2    2    1         0.1708625675E-02      0.4151745983E-02

    ------------------------------------------------
       NWT REQUIRED            3 OUTER ITERATIONS 
       AND A TOTAL OF          5 INNER ITERATIONS.
    ------------------------------------------------

 NO OUTPUT CONTROL FOR STRESS PERIOD    4   TIME STEP    7
 
 SOLVING FOR HEAD 
                                                   Max.-Head-Change                         Max.-Flux-Residual
  Residual-Control   Outer-Iter.   Inner-Iter.     Column Row Layer    Maximum-Head-Change  Column Row Layer    Maximum-Flux-Residual          L2-NORM 
          0                 1           2             2    2     1       0.4648225140E-02       2    2    1         0.2426154093E+00      0.5905842514E+00
          0                 2           2             2    2     1      -0.4521463726E-03       2    2    1        -0.2426159521E-01      0.5863995959E-01
          0                 3           1             2    2     1       0.3078948363E-04       2    2    1         0.1698311876E-02      0.4066528412E-02

    ------------------------------------------------
       NWT REQUIRED            3 OUTER ITERATIONS 
       AND A TOTAL OF          5 INNER ITERATIONS.
    ------------------------------------------------

 NO OUTPUT CONTROL FOR STRESS PERIOD    4   TIME STEP    8
 
 SOLVING FOR HEAD 
                                                   Max.-Head-Change                         Max.-Flux-Residual
  Residual-Control   Outer-Iter.   Inner-Iter.     Column Row Layer    Maximum-Head-Change  Column Row Layer    Maximum-Flux-Residual          L2-NORM 
          0                 1           2             2    2     1       0.4620490959E-02       2    2    1         0.2411576405E+00      0.5784937476E+00
          0                 2           2             2    2     1      -0.4494485790E-03       2    2    1        -0.2411581739E-01      0.5748116049E-01
          0                 3           1             2    2     1       0.3060577453E-04       2    2    1         0.1688107457E-02      0.3990064608E-02

    ------------------------------------------------
       NWT REQUIRED            3 OUTER ITERATIONS 
       AND A TOTAL OF          5 INNER ITERATIONS.
    ------------------------------------------------

 NO OUTPUT CONTROL FOR STRESS PERIOD    4   TIME STEP    9
 
 SOLVING FOR HEAD 
                                                   Max.-Head-Change                         Max.-Flux-Residual
  Residual-Control   Outer-Iter.   Inner-Iter.     Column Row Layer    Maximum-Head-Change  Column Row Layer    Maximum-Flux-Residual          L2-NORM 
          0                 1           2             2    2     1       0.4593217664E-02       2    2    1         0.2397240935E+00      0.5676885115E+00
          0                 2           2             2    2     1      -0.4467956171E-03       2    2    1        -0.2397246178E-01      0.5644437923E-01
          0                 3           1             2    2     1       0.3042511732E-04       2    2    1         0.1678072550E-02      0.3921225509E-02

    ------------------------------------------------
       NWT REQUIRED            3 OUTER ITERATIONS 
       AND A TOTAL OF          5 INNER ITERATIONS.
    ------------------------------------------------

 NO OUTPUT CONTROL FOR STRESS PERIOD    4   TIME STEP   10
 
 SOLVING FOR HEAD 
                                                   Max.-Head-Change                         Max.-Flux-Residual
  Residual-Control   Outer-Iter.   Inner-Iter.     Column Row Layer    Maximum-Head-Change  Column Row Layer    Maximum-Flux-Residual          L2-NORM 
          0                 1           2             2    2     1       0.4566229252E-02       2    2    1         0.2383055642E+00      0.5580162847E+00
          0                 2           2             2    2     1      -0.4441703675E-03       2    2    1        -0.2383060796E-01      0.5551692614E-01
          0                 3           1             2    2     1       0.3024634806E-04       2    2    1         0.1668142804E-02      0.3860277890E-02

    ------------------------------------------------
       NWT REQUIRED            3 OUTER ITERATIONS 
       AND A TOTAL OF          5 INNER ITERATIONS.
    ------------------------------------------------

 NO OUTPUT CONTROL FOR STRESS PERIOD    4   TIME STEP   11
 
 SOLVING FOR HEAD 
                                                   Max.-Head-Change                         Max.-Flux-Residual
  Residual-Control   Outer-Iter.   Inner-Iter.     Column Row Layer    Maximum-Head-Change  Column Row Layer    Maximum-Flux-Residual          L2-NORM 
          0                 1           2             2    2     1       0.4539604892E-02       2    2    1         0.2369062451E+00      0.5493253848E+00
          0                 2           2             2    2     1      -0.4415805301E-03       2    2    1        -0.2369067519E-01      0.5468227958E-01
          0                 3           1             2    2     1       0.3006999002E-04       2    2    1         0.1658347512E-02      0.3805227581E-02

    ------------------------------------------------
       NWT REQUIRED            3 OUTER ITERATIONS 
       AND A TOTAL OF          5 INNER ITERATIONS.
    ------------------------------------------------

 NO OUTPUT CONTROL FOR STRESS PERIOD    4   TIME STEP   12
 
 SOLVING FOR HEAD 
                                                   Max.-Head-Change                         Max.-Flux-Residual
  Residual-Control   Outer-Iter.   Inner-Iter.     Column Row Layer    Maximum-Head-Change  Column Row Layer    Maximum-Flux-Residual          L2-NORM 
          0                 1           2             2    2     1       0.4513339655E-02       2    2    1         0.2355258017E+00      0.5415014739E+00
          0                 2           2             2    2     1      -0.4390256255E-03       2    2    1        -0.2355262999E-01      0.5393066245E-01
          0                 3           1             2    2     1       0.2989601008E-04       2    2    1         0.1648684331E-02      0.3755364503E-02

    ------------------------------------------------
       NWT REQUIRED            3 OUTER ITERATIONS 
       AND A TOTAL OF          5 INNER ITERATIONS.
    ------------------------------------------------

 NO OUTPUT CONTROL FOR STRESS PERIOD    4   TIME STEP   13
 
 SOLVING FOR HEAD 
                                                   Max.-Head-Change                         Max.-Flux-Residual
  Residual-Control   Outer-Iter.   Inner-Iter.     Column Row Layer    Maximum-Head-Change  Column Row Layer    Maximum-Flux-Residual          L2-NORM 
          0                 1           2             2    2     1       0.4487427999E-02       2    2    1         0.2341639785E+00      0.5344404299E+00
          0                 2           2             2    2     1      -0.4365051153E-03       2    2    1        -0.2341644683E-01      0.5325064171E-01
          0                 3           1             2    2     1       0.2972437273E-04       2    2    1         0.1639151517E-02      0.3709722433E-02

    ------------------------------------------------
       NWT REQUIRED            3 OUTER ITERATIONS 
       AND A TOTAL OF          5 INNER ITERATIONS.
    ------------------------------------------------

 NO OUTPUT CONTROL FOR STRESS PERIOD    4   TIME STEP   14
 
 SOLVING FOR HEAD 
                                                   Max.-Head-Change                         Max.-Flux-Residual
  Residual-Control   Outer-Iter.   Inner-Iter.     Column Row Layer    Maximum-Head-Change  Column Row Layer    Maximum-Flux-Residual          L2-NORM 
          0                 1           2             2    2     1       0.4461780208E-02       2    2    1         0.2328160480E+00      0.5280414352E+00
          0                 2           2             2    2     1      -0.4340102724E-03       2    2    1        -0.2328165297E-01      0.5263399317E-01
          0                 3           1             2    2     1       0.2955448369E-04       2    2    1         0.1629715952E-02      0.3668692096E-02

    ------------------------------------------------
       NWT REQUIRED            3 OUTER ITERATIONS 
       AND A TOTAL OF          5 INNER ITERATIONS.
    ------------------------------------------------

 NO OUTPUT CONTROL FOR STRESS PERIOD    4   TIME STEP   15
 
 SOLVING FOR HEAD 
                                                   Max.-Head-Change                         Max.-Flux-Residual
  Residual-Control   Outer-Iter.   Inner-Iter.     Column Row Layer    Maximum-Head-Change  Column Row Layer    Maximum-Flux-Residual          L2-NORM 
          0                 1           2             2    2     1       0.4436475808E-02       2    2    1         0.2314862385E+00      0.5222149451E+00
          0                 2           2             2    2     1      -0.4315488322E-03       2    2    1        -0.2314867122E-01      0.5207189517E-01
          0                 3           1             2    2     1       0.2938686860E-04       2    2    1         0.1620407231E-02      0.3631218894E-02

    ------------------------------------------------
       NWT REQUIRED            3 OUTER ITERATIONS 
       AND A TOTAL OF          5 INNER ITERATIONS.
    ------------------------------------------------

 NO OUTPUT CONTROL FOR STRESS PERIOD    4   TIME STEP   16
 
 SOLVING FOR HEAD 
                                                   Max.-Head-Change                         Max.-Flux-Residual
  Residual-Control   Outer-Iter.   Inner-Iter.     Column Row Layer    Maximum-Head-Change  Column Row Layer    Maximum-Flux-Residual          L2-NORM 
          0                 1           2             2    2     1       0.4411510217E-02       2    2    1         0.2301742335E+00      0.5168938498E+00
          0                 2           2             2    2     1      -0.4291203492E-03       2    2    1        -0.2301746994E-01      0.5155769981E-01
          0                 3           1             2    2     1       0.2922149812E-04       2    2    1         0.1611223157E-02      0.3596963481E-02

    ------------------------------------------------
       NWT REQUIRED            3 OUTER ITERATIONS 
       AND A TOTAL OF          5 INNER ITERATIONS.
    ------------------------------------------------

 NO OUTPUT CONTROL FOR STRESS PERIOD    4   TIME STEP   17
 
 SOLVING FOR HEAD 
                                                   Max.-Head-Change                         Max.-Flux-Residual
  Residual-Control   Outer-Iter.   Inner-Iter.     Column Row Layer    Maximum-Head-Change  Column Row Layer    Maximum-Flux-Residual          L2-NORM 
          0                 1           2             2    2     1       0.4386877882E-02       2    2    1         0.2288797954E+00      0.5120298929E+00
          0                 2           2             2    2     1      -0.4267242835E-03       2    2    1        -0.2288802537E-01      0.5108666455E-01
          0                 3           1             2    2     1       0.2905833509E-04       2    2    1         0.1602162048E-02      0.3565003653E-02

    ------------------------------------------------
       NWT REQUIRED            3 OUTER ITERATIONS 
       AND A TOTAL OF          5 INNER ITERATIONS.
    ------------------------------------------------

 NO OUTPUT CONTROL FOR STRESS PERIOD    4   TIME STEP   18
 
 SOLVING FOR HEAD 
                                                   Max.-Head-Change                         Max.-Flux-Residual
  Residual-Control   Outer-Iter.   Inner-Iter.     Column Row Layer    Maximum-Head-Change  Column Row Layer    Maximum-Flux-Residual          L2-NORM 
          0                 1           2             2    2     1       0.4362574026E-02       2    2    1         0.2276026363E+00      0.5075547223E+00
          0                 2           2             2    2     1      -0.4243601697E-03       2    2    1        -0.2276030872E-01      0.5065321812E-01
          0                 3           1             2    2     1       0.2889734804E-04       2    2    1         0.1593221883E-02      0.3536189499E-02

    ------------------------------------------------
       NWT REQUIRED            3 OUTER ITERATIONS 
       AND A TOTAL OF          5 INNER ITERATIONS.
    ------------------------------------------------

 NO OUTPUT CONTROL FOR STRESS PERIOD    4   TIME STEP   19
 
 SOLVING FOR HEAD 
                                                   Max.-Head-Change                         Max.-Flux-Residual
  Residual-Control   Outer-Iter.   Inner-Iter.     Column Row Layer    Maximum-Head-Change  Column Row Layer    Maximum-Flux-Residual          L2-NORM 
          0                 1           2             2    2     1       0.4338508634E-02       2    2    1         0.2263380676E+00      0.5034376619E+00
          0                 2           2             2    2     1      -0.4220192519E-03       2    2    1        -0.2263385111E-01      0.5025345755E-01
          0                 3           1             2    2     1       0.2873794007E-04       2    2    1         0.1584369836E-02      0.3509546944E-02

    ------------------------------------------------
       NWT REQUIRED            3 OUTER ITERATIONS 
       AND A TOTAL OF          5 INNER ITERATIONS.
    ------------------------------------------------

 NO OUTPUT CONTROL FOR STRESS PERIOD    4   TIME STEP   20
 
 SOLVING FOR HEAD 
                                                   Max.-Head-Change                         Max.-Flux-Residual
  Residual-Control   Outer-Iter.   Inner-Iter.     Column Row Layer    Maximum-Head-Change  Column Row Layer    Maximum-Flux-Residual          L2-NORM 
          0                 1           2             2    2     1       0.4314847351E-02       2    2    1         0.2250947447E+00      0.4996128013E+00
          0                 2           2             2    2     1      -0.4197176439E-03       2    2    1        -0.2250951812E-01      0.4988139387E-01
          0                 3           1             2    2     1       0.2858120912E-04       2    2    1         0.1575666532E-02      0.3484255654E-02

    ------------------------------------------------
       NWT REQUIRED            3 OUTER ITERATIONS 
       AND A TOTAL OF          5 INNER ITERATIONS.
    ------------------------------------------------

 NO OUTPUT CONTROL FOR STRESS PERIOD    4   TIME STEP   21
 
 SOLVING FOR HEAD 
                                                   Max.-Head-Change                         Max.-Flux-Residual
  Residual-Control   Outer-Iter.   Inner-Iter.     Column Row Layer    Maximum-Head-Change  Column Row Layer    Maximum-Flux-Residual          L2-NORM 
          0                 1           2             2    2     1       0.4291414664E-02       2    2    1         0.2238634925E+00      0.4960630479E+00
          0                 2           2             2    2     1      -0.4174382721E-03       2    2    1        -0.2238639221E-01      0.4953554844E-01
          0                 3           1             2    2     1       0.2842599287E-04       2    2    1         0.1567047735E-02      0.3460723927E-02

    ------------------------------------------------
       NWT REQUIRED            3 OUTER ITERATIONS 
       AND A TOTAL OF          5 INNER ITERATIONS.
    ------------------------------------------------

 NO OUTPUT CONTROL FOR STRESS PERIOD    4   TIME STEP   22
 
 SOLVING FOR HEAD 
                                                   Max.-Head-Change                         Max.-Flux-Residual
  Residual-Control   Outer-Iter.   Inner-Iter.     Column Row Layer    Maximum-Head-Change  Column Row Layer    Maximum-Flux-Residual          L2-NORM 
          0                 1           2             2    2     1       0.4268292141E-02       2    2    1         0.2226485337E+00      0.4927559452E+00
          0                 2           2             2    2     1      -0.4151890704E-03       2    2    1        -0.2226489564E-01      0.4921384520E-01
          0                 3           1             2    2     1       0.2827283023E-04       2    2    1         0.1558542960E-02      0.3439318153E-02

    ------------------------------------------------
       NWT REQUIRED            3 OUTER ITERATIONS 
       AND A TOTAL OF          5 INNER ITERATIONS.
    ------------------------------------------------

 NO OUTPUT CONTROL FOR STRESS PERIOD    4   TIME STEP   23
 
 SOLVING FOR HEAD 
                                                   Max.-Head-Change                         Max.-Flux-Residual
  Residual-Control   Outer-Iter.   Inner-Iter.     Column Row Layer    Maximum-Head-Change  Column Row Layer    Maximum-Flux-Residual          L2-NORM 
          0                 1           2             2    2     1       0.4245474688E-02       2    2    1         0.2214496566E+00      0.4896634547E+00
          0                 2           2             2    2     1      -0.4129695445E-03       2    2    1        -0.2214500726E-01      0.4890987911E-01
          0                 3           1             2    2     1       0.2812168902E-04       2    2    1         0.1550150785E-02      0.3418715790E-02

    ------------------------------------------------
       NWT REQUIRED            3 OUTER ITERATIONS 
       AND A TOTAL OF          5 INNER ITERATIONS.
    ------------------------------------------------

 NO OUTPUT CONTROL FOR STRESS PERIOD    4   TIME STEP   24
 
 SOLVING FOR HEAD 
                                                   Max.-Head-Change                         Max.-Flux-Residual
  Residual-Control   Outer-Iter.   Inner-Iter.     Column Row Layer    Maximum-Head-Change  Column Row Layer    Maximum-Flux-Residual          L2-NORM 
          0                 1           2             2    2     1       0.4222873025E-02       2    2    1         0.2202621556E+00      0.4867597822E+00
          0                 2           2             2    2     1      -0.4107710089E-03       2    2    1        -0.2202625650E-01      0.4862641422E-01
          0                 3           1             2    2     1       0.2797197709E-04       2    2    1         0.1541838243E-02      0.3399615835E-02

    ------------------------------------------------
       NWT REQUIRED            3 OUTER ITERATIONS 
       AND A TOTAL OF          5 INNER ITERATIONS.
    ------------------------------------------------

 NO OUTPUT CONTROL FOR STRESS PERIOD    4   TIME STEP   25
 
 SOLVING FOR HEAD 
                                                   Max.-Head-Change                         Max.-Flux-Residual
  Residual-Control   Outer-Iter.   Inner-Iter.     Column Row Layer    Maximum-Head-Change  Column Row Layer    Maximum-Flux-Residual          L2-NORM 
          0                 1           2             2    2     1       0.4200652857E-02       2    2    1         0.2190947260E+00      0.4840163545E+00
          0                 2           2             2    2     1      -0.4086095830E-03       2    2    1        -0.2190951291E-01      0.4835769767E-01
          0                 3           1             2    2     1       0.2782479187E-04       2    2    1         0.1533666189E-02      0.3380922463E-02

    ------------------------------------------------
       NWT REQUIRED            3 OUTER ITERATIONS 
       AND A TOTAL OF          5 INNER ITERATIONS.
    ------------------------------------------------

 NO OUTPUT CONTROL FOR STRESS PERIOD    4   TIME STEP   26
 
 SOLVING FOR HEAD 
                                                   Max.-Head-Change                         Max.-Flux-Residual
  Residual-Control   Outer-Iter.   Inner-Iter.     Column Row Layer    Maximum-Head-Change  Column Row Layer    Maximum-Flux-Residual          L2-NORM 
          0                 1           2             2    2     1       0.4178639351E-02       2    2    1         0.2179381933E+00      0.4814396288E+00
          0                 2           2             2    2     1      -0.4064682595E-03       2    2    1        -0.2179385901E-01      0.4810554201E-01
          0                 3           1             2    2     1       0.2767897558E-04       2    2    1         0.1525570402E-02      0.3363866503E-02

    ------------------------------------------------
       NWT REQUIRED            3 OUTER ITERATIONS 
       AND A TOTAL OF          5 INNER ITERATIONS.
    ------------------------------------------------

 NO OUTPUT CONTROL FOR STRESS PERIOD    4   TIME STEP   27
 
 SOLVING FOR HEAD 
                                                   Max.-Head-Change                         Max.-Flux-Residual
  Residual-Control   Outer-Iter.   Inner-Iter.     Column Row Layer    Maximum-Head-Change  Column Row Layer    Maximum-Flux-Residual          L2-NORM 
          0                 1           2             2    2     1       0.4156913743E-02       2    2    1         0.2167968174E+00      0.4789933937E+00
          0                 2           2             2    2     1      -0.4043549410E-03       2    2    1        -0.2167972081E-01      0.4786449974E-01
          0                 3           1             2    2     1       0.2753506663E-04       2    2    1         0.1517580741E-02      0.3347386713E-02

    ------------------------------------------------
       NWT REQUIRED            3 OUTER ITERATIONS 
       AND A TOTAL OF          5 INNER ITERATIONS.
    ------------------------------------------------

 NO OUTPUT CONTROL FOR STRESS PERIOD    4   TIME STEP   28
 
 SOLVING FOR HEAD 
                                                   Max.-Head-Change                         Max.-Flux-Residual
  Residual-Control   Outer-Iter.   Inner-Iter.     Column Row Layer    Maximum-Head-Change  Column Row Layer    Maximum-Flux-Residual          L2-NORM 
          0                 1           2             2    2     1       0.4135472034E-02       2    2    1         0.2156703687E+00      0.4766662625E+00
          0                 2           2             2    2     1      -0.4022692384E-03       2    2    1        -0.2156707535E-01      0.4763545002E-01
          0                 3           1             2    2     1       0.2739303805E-04       2    2    1         0.1509695551E-02      0.3331585336E-02

    ------------------------------------------------
       NWT REQUIRED            3 OUTER ITERATIONS 
       AND A TOTAL OF          5 INNER ITERATIONS.
    ------------------------------------------------

 NO OUTPUT CONTROL FOR STRESS PERIOD    4   TIME STEP   29
 
 SOLVING FOR HEAD 
                                                   Max.-Head-Change                         Max.-Flux-Residual
  Residual-Control   Outer-Iter.   Inner-Iter.     Column Row Layer    Maximum-Head-Change  Column Row Layer    Maximum-Flux-Residual          L2-NORM 
          0                 1           2             2    2     1       0.3369543518E-02       2    2    1         0.1756372930E+00      0.4353000405E+00
          0                 2           2             2    2     1      -0.3277650554E-03       2    2    1        -0.1756375291E-01      0.4340742729E-01
          0                 3           1             2    2     1       0.2231958176E-04       2    2    1         0.1229463011E-02      0.3027373497E-02

    ------------------------------------------------
       NWT REQUIRED            3 OUTER ITERATIONS 
       AND A TOTAL OF          5 INNER ITERATIONS.
    ------------------------------------------------

 NO OUTPUT CONTROL FOR STRESS PERIOD    4   TIME STEP   30



 STREAM LISTING     PERIOD      4   STEP       30

 LAYER ROW COL. STREAM  RCH.  FLOW INTO     FLOW TO   FLOW OUT OF   OVRLND.     DIRECT     STREAM       STREAM     STREAM     STREAM   STREAMBED  STREAMBED
                SEG.NO.  NO.  STRM. RCH.    AQUIFER    STRM. RCH.    RUNOFF     PRECIP       ET          HEAD       DEPTH      WIDTH   CONDCTNC.   GRADIENT

   1    1    1     1     1    2.3343E+01  2.3738E-01   2.3105E+01  0.000E+00  0.000E+00  0.000E+00  1.09420E+03  1.153E+00  1.270E+01  5.716E-02  1.384E+00
   1    2    2     1     2    2.3105E+01  3.6700E-01   2.2738E+01  0.000E+00  0.000E+00  0.000E+00  1.08921E+03  1.148E+00  1.264E+01  8.847E-02  1.383E+00
   1    3    3     1     3    2.2738E+01  3.1238E-01   2.2426E+01  0.000E+00  0.000E+00  0.000E+00  1.08356E+03  1.143E+00  1.257E+01  7.540E-02  1.381E+00
   1    3    4     1     4    2.2426E+01  2.8716E-01   2.2139E+01  0.000E+00  0.000E+00  0.000E+00  1.07855E+03  1.138E+00  1.250E+01  6.939E-02  1.379E+00
   1    4    5     2     1    2.0139E+01  3.1634E-01   1.9822E+01  0.000E+00  0.000E+00  0.000E+00  1.07299E+03  1.056E+00  1.200E+01  7.800E-02  1.352E+00
   1    5    6     2     2    1.9822E+01  2.4280E-01   1.9580E+01  0.000E+00  0.000E+00  0.000E+00  1.06756E+03  1.047E+00  1.200E+01  6.000E-02  1.349E+00
   1    6    6     2     3    1.9580E+01  2.4234E-01   1.9337E+01  0.000E+00  0.000E+00  0.000E+00  1.06283E+03  1.039E+00  1.200E+01  6.000E-02  1.346E+00
   1    7    6     2     4    1.9337E+01  2.4187E-01   1.9095E+01  0.000E+00  0.000E+00  0.000E+00  1.05811E+03  1.031E+00  1.200E+01  6.000E-02  1.344E+00
   1    8    6     2     5    1.9095E+01  2.4140E-01   1.8854E+01  0.000E+00  0.000E+00  0.000E+00  1.05338E+03  1.023E+00  1.200E+01  6.000E-02  1.341E+00
   1    3    5     3     1    2.0000E+00  2.8252E-01   1.7175E+00  0.000E+00  0.000E+00  0.000E+00  1.07555E+03  1.909E+00  9.636E+00  7.227E-02  1.955E+00
   1    3    6     3     2    1.7175E+00  2.4905E-01   1.4684E+00  0.000E+00  0.000E+00  0.000E+00  1.07264E+03  1.727E+00  8.909E+00  6.682E-02  1.864E+00
   1    3    7     3     3    1.4684E+00  1.9718E-01   1.2712E+00  0.000E+00  0.000E+00  0.000E+00  1.06987E+03  1.555E+00  8.218E+00  5.547E-02  1.777E+00
   1    4    8     3     4    1.2712E+00  2.2567E-01   1.0456E+00  0.000E+00  0.000E+00  0.000E+00  1.06682E+03  1.364E+00  7.455E+00  6.709E-02  1.682E+00
   1    5    8     3     5    1.0456E+00  1.5790E-01   8.8768E-01  0.000E+00  0.000E+00  0.000E+00  1.06362E+03  1.164E+00  6.655E+00  4.991E-02  1.582E+00
   1    6    8     3     6    8.8768E-01  5.5980E-02   8.3170E-01  0.000E+00  0.000E+00  0.000E+00  1.06158E+03  1.036E+00  6.145E+00  1.844E-02  1.518E+00
   1    5   10     4     1    1.0000E+01  9.0919E-02   9.9091E+00  0.000E+00  0.000E+00  0.000E+00  1.07836E+03  6.368E-01  1.000E+01  2.500E-02  1.212E+00
   1    5    9     4     2    9.9091E+00  1.8158E-01   9.7275E+00  0.000E+00  0.000E+00  0.000E+00  1.07154E+03  6.315E-01  1.000E+01  5.000E-02  1.211E+00
   1    6    8     4     3    9.7275E+00  1.2689E-01   9.6006E+00  0.000E+00  0.000E+00  0.000E+00  1.06381E+03  6.256E-01  1.000E+01  3.500E-02  1.209E+00
   1    6    8     5     1    1.0432E+01  2.2686E-01   1.0205E+01  0.000E+00  0.000E+00  0.000E+00  1.05868E+03  6.790E-01  1.542E+01  6.166E-02  1.226E+00
   1    7    7     5     2    1.0205E+01  2.7894E-01   9.9265E+00  0.000E+00  0.000E+00  0.000E+00  1.05417E+03  6.732E-01  1.519E+01  7.594E-02  1.224E+00
   1    8    7     5     3    9.9265E+00  1.9221E-01   9.7343E+00  0.000E+00  0.000E+00  0.000E+00  1.04992E+03  6.676E-01  1.497E+01  5.241E-02  1.223E+00
   1    8    6     5     4    9.7343E+00  1.3577E-01   9.5985E+00  0.000E+00  0.000E+00  0.000E+00  1.04691E+03  6.637E-01  1.482E+01  3.706E-02  1.221E+00
   1    9    6     6     1    2.8452E+01  2.5896E-01   2.8194E+01  0.000E+00  0.000E+00  0.000E+00  1.04404E+03  1.316E+00  1.200E+01  6.000E-02  1.439E+00
   1   10    7     6     2    2.8194E+01  2.5853E-01   2.7935E+01  0.000E+00  0.000E+00  0.000E+00  1.03949E+03  1.309E+00  1.200E+01  6.000E-02  1.436E+00
   1   11    7     6     3    2.7935E+01  2.5809E-01   2.7677E+01  0.000E+00  0.000E+00  0.000E+00  1.03494E+03  1.302E+00  1.200E+01  6.000E-02  1.434E+00
   1   12    7     6     4    2.7677E+01  2.5766E-01   2.7419E+01  0.000E+00  0.000E+00  0.000E+00  1.03039E+03  1.294E+00  1.200E+01  6.000E-02  1.431E+00
   1   13    7     6     5    2.7419E+01  8.2030E-03   2.7411E+01  0.000E+00  0.000E+00  0.000E+00  1.02720E+03  1.291E+00  1.200E+01  2.400E-02  1.139E-01
   1   14    9     7     1    1.5000E+02  1.3670E+00   1.4863E+02  0.000E+00  0.000E+00  0.000E+00  1.03987E+03  2.288E+00  5.529E+01  5.593E-01  8.147E-01
   1   13    8     7     2    1.4863E+02  1.9172E+00   1.4672E+02  0.000E+00  0.000E+00  0.000E+00  1.03478E+03  2.279E+00  5.526E+01  6.148E-01  1.040E+00
   1   13    7     7     3    1.4672E+02  1.5809E+00   1.4513E+02  0.000E+00  0.000E+00  0.000E+00  1.02969E+03  2.270E+00  5.521E+01  5.584E-01  9.437E-01
   1   13    6     8     1    1.7255E+02  1.0238E+00   1.7152E+02  0.000E+00  0.000E+00  0.000E+00  1.02484E+03  2.965E+00  4.300E+01  4.382E-01  7.788E-01
   1   13    5     8     2    1.7152E+02  2.5244E-01   1.7127E+02  0.000E+00  0.000E+00  0.000E+00  1.01859E+03  2.961E+00  4.294E+01  4.376E-01  1.923E-01
   1   13    4     8     3    1.7127E+02 -2.2862E+00   1.7356E+02  0.000E+00  0.000E+00  0.000E+00  1.01234E+03  2.968E+00  4.303E+01  4.385E+00 -1.738E-01
   1   13    3     8     4    1.7356E+02 -3.5977E+00   1.7715E+02  0.000E+00  0.000E+00  0.000E+00  1.00611E+03  2.987E+00  4.331E+01  4.413E+00 -2.717E-01
   1   13    2     8     5    1.7715E+02 -2.6042E+00   1.7976E+02  0.000E+00  0.000E+00  0.000E+00  9.99881E+02  3.006E+00  4.359E+01  4.442E+00 -1.954E-01
   1   13    1     8     6    1.7976E+02 -1.9818E+00   1.8174E+02  0.000E+00  0.000E+00  0.000E+00  9.94896E+02  3.021E+00  4.380E+01  2.678E+00 -2.467E-01
   1    8    6     9     1    0.0000E+00  0.0000E+00   0.0000E+00  0.000E+00  0.000E+00  0.000E+00  1.07875E+03  0.000E+00  4.000E+00  0.000E+00  1.000E+00
   1    8    5     9     2    0.0000E+00  0.0000E+00   0.0000E+00  0.000E+00  0.000E+00  0.000E+00  1.07825E+03  0.000E+00  4.000E+00  0.000E+00  1.000E+00





UNSATURATED ZONE PACKAGE VOLUMETRIC BUDGET FOR  TIME STEP    30 STRESS PERIOD    4
  ------------------------------------------------------------------------------



     CUMULATIVE VOLUMES      L**3       RATES FOR THIS TIME STEP      L**3/T
     ------------------                 ------------------------

           IN:                                      IN:
           ---                                      ---
        INFILTRATION =    34848397.6743          INFILTRATION =           4.4075

          OUT:                                     OUT:
          ----                                     ----
              UZF ET =     5720249.6592                UZF ET =           0.7250
        UZF RECHARGE =       73224.0000          UZF RECHARGE =       0.0000E+00

            IN - OUT =    29054924.0151              IN - OUT =           3.6825

          STORAGE:                                 STORAGE:
          --------                                 --------
      STORAGE CHANGE =    29054923.8326        STORAGE CHANGE =           3.6825

 PERCENT DISCREPANCY IS DIFFERENCE BETWEEN IN-OUT MINUS CHANGE IN STORAGE
 DIVIDED BY THE AVERAGE OF IN AND OUT TIMES 100

 PERCENT DISCREPANCY =           0.00     PERCENT DISCREPANCY =           0.00






1
  VOLUMETRIC BUDGET FOR AGRICULTURAL FIELDS AT  END OF TIME STEP   30, STRESS PERIOD   4
  ------------------------------------------------------------------------------

     CUMULATIVE VOLUMES      L**3       RATES FOR THIS TIME STEP      L**3/T
     ------------------                 ------------------------

           IN:                                      IN:
           ---                                      ---
               AG WELLS  =           0.0000                 AG WELLS  =           0.0000
      DIVERSION SEGMENTS =           0.0000        DIVERSION SEGMENTS =           0.0000
           GW IRRIGATION =           0.0000             GW IRRIGATION =           0.0000
           SW IRRIGATION =           0.0000             SW IRRIGATION =           0.0000
        SYSTEM LOSSES GW =           0.0000          SYSTEM LOSSES GW =           0.0000
        SYSTEM LOSSES SW =           0.0000          SYSTEM LOSSES SW =           0.0000

                TOTAL IN =           0.0000                  TOTAL IN =           0.0000

          OUT:                                     OUT:
          ----                                     ----
               AG WELLS  =           0.0000                 AG WELLS  =           0.0000
      DIVERSION SEGMENTS =           0.0000        DIVERSION SEGMENTS =           0.0000
           GW IRRIGATION =           0.0000             GW IRRIGATION =           0.0000
           SW IRRIGATION =           0.0000             SW IRRIGATION =           0.0000
        SYSTEM LOSSES GW =           0.0000          SYSTEM LOSSES GW =           0.0000
        SYSTEM LOSSES SW =           0.0000          SYSTEM LOSSES SW =           0.0000

               TOTAL OUT =           0.0000                 TOTAL OUT =           0.0000

                IN - OUT =           0.0000                  IN - OUT =           0.0000

     PERCENT DISCREPANCY =           0.00         PERCENT DISCREPANCY =           0.00



1
  VOLUMETRIC BUDGET FOR ENTIRE MODEL AT END OF TIME STEP   30, STRESS PERIOD   4
  ------------------------------------------------------------------------------

     CUMULATIVE VOLUMES      L**3       RATES FOR THIS TIME STEP      L**3/T
     ------------------                 ------------------------

           IN:                                      IN:
           ---                                      ---
             STORAGE     =     4302727.5000               STORAGE     =           0.6663
       CONSTANT HEAD     =           0.0000         CONSTANT HEAD     =           0.0000
     HEAD DEP BOUNDS     =     2295783.0000       HEAD DEP BOUNDS     =           0.2879
      STREAM LEAKAGE     =    93457376.0000        STREAM LEAKAGE     =          12.0729
        UZF RECHARGE     =       73223.9531          UZF RECHARGE     =           0.0000
               GW ET     =           0.0000                 GW ET     =           0.0000
     SURFACE LEAKAGE     =           0.0000       SURFACE LEAKAGE     =           0.0000
           AG WELLS      =           0.0000             AG WELLS      =           0.0000

                TOTAL IN =   100129112.0000                  TOTAL IN =          13.0270

          OUT:                                     OUT:
          ----                                     ----
             STORAGE     =    17554010.0000               STORAGE     =           2.2674
       CONSTANT HEAD     =           0.0000         CONSTANT HEAD     =           0.0000
     HEAD DEP BOUNDS     =     2297699.7500       HEAD DEP BOUNDS     =           0.2902
      STREAM LEAKAGE     =    80281160.0000        STREAM LEAKAGE     =          10.4699
        UZF RECHARGE     =           0.0000          UZF RECHARGE     =           0.0000
               GW ET     =           0.0000                 GW ET     =           0.0000
     SURFACE LEAKAGE     =           0.0000       SURFACE LEAKAGE     =           0.0000
           AG WELLS      =           0.0000             AG WELLS      =           0.0000

               TOTAL OUT =   100132872.0000                 TOTAL OUT =          13.0275

                IN - OUT =       -3760.0000                  IN - OUT =      -4.5586E-04

     PERCENT DISCREPANCY =          -0.00         PERCENT DISCREPANCY =          -0.00






         TIME SUMMARY AT END OF TIME STEP   30 IN STRESS PERIOD    4
                    SECONDS     MINUTES      HOURS       DAYS        YEARS
                    -----------------------------------------------------------
   TIME STEP LENGTH  87667.      1461.1      24.352      1.0147     2.77799E-03
 STRESS PERIOD TIME 2.63000E+06  43833.      730.56      30.440     8.33397E-02
         TOTAL TIME 7.97639E+06 1.32940E+05  2215.7      92.319     0.25276    
1
1
                            STRESS PERIOD NO.    5, LENGTH =   2630000.    
                            -----------------------------------------------

                              NUMBER OF TIME STEPS =    30

                               MULTIPLIER FOR DELT =     1.000

                            INITIAL TIME STEP SIZE =   87666.66    

 REUSING NON-PARAMETER GHB CELLS FROM LAST STRESS PERIOD

      2 GHB CELLS

 REUSING STREAM SEGMENT DATA FROM LAST STRESS PERIOD



            AREAL INFILTRATION RATE
 READING ON UNIT   19 WITH FORMAT: (10F4.0)            

            1           2           3           4           5           6           7           8           9          10
 ........................................................................................................................
   1   1.2000E-09   0.000       0.000       0.000       0.000       0.000       0.000       0.000       0.000       0.000    
   2   2.1000E-09  2.0000E-09  8.0000E-10  8.5000E-09   0.000       0.000       0.000       0.000       0.000       0.000    
   3   5.0000E-10  1.1000E-09  8.8000E-09  5.5000E-09   0.000       0.000       0.000       0.000       0.000       0.000    
   4   8.5000E-09  1.1000E-09  1.1000E-09  1.1000E-09  2.0000E-09   0.000       0.000       0.000       0.000       0.000    
   5   8.5000E-09  1.1000E-09  1.1000E-09  1.1000E-09  1.1000E-09   0.000       0.000       0.000       0.000       0.000    
   6   8.5000E-09  5.2000E-09  2.1000E-09  1.1000E-09  1.5000E-09   0.000       0.000       0.000       0.000       0.000    
   7   8.5000E-09  5.2000E-09  2.1000E-09  1.2000E-09  2.0000E-09   0.000       0.000       0.000       0.000       0.000    
   8   5.0000E-10  5.2000E-09  2.1000E-09  1.2000E-09  5.0000E-09   0.000       0.000       0.000       0.000       0.000    
   9   5.0000E-10  5.2000E-09  2.1000E-09  1.2000E-09  5.0000E-09   0.000       0.000       0.000       0.000       0.000    
  10   5.0000E-10  5.2000E-09  2.1000E-09  1.2000E-09  5.8000E-09   0.000       0.000       0.000       0.000       0.000    
  11   1.0000E-10  1.1000E-09  1.1000E-09  1.2000E-09  5.0000E-09   0.000       0.000       0.000       0.000       0.000    
  12   1.1000E-09  1.1000E-09  1.1000E-09  1.1000E-09  2.0000E-09   0.000       0.000       0.000       0.000       0.000    
  13   1.1000E-09  2.2000E-09  2.2000E-09  2.1000E-09  1.0000E-09   0.000       0.000       0.000       0.000       0.000    
  14   2.0000E-10  5.5000E-09  5.5000E-09  5.2000E-09  1.0000E-09   0.000       0.000       0.000       0.000       0.000    
  15    0.000      8.8000E-09  8.8000E-09   0.000       0.000       0.000       0.000       0.000       0.000       0.000    

                  ET RATE =  2.500000E-08

 USING ET EXTINCTION DEPTH FROM PREVIOUS STRESS PERIOD. CURRENT PERIOD IS:       5

 USING EXTINCTION WATER CONTENT FROM PREVIOUS STRESS PERIOD. CURRENT PERIOD IS:       5

 USING AIR ENTRY PRESSURE FROM PREVIOUS STRESS PERIOD. CURRENT PERIOD IS:       5

 USING ROOT PRESSURE HEAD FROM PREVIOUS STRESS PERIOD. CURRENT PERIOD IS:       5

 USING ROOT ACTIVITY FROM PREVIOUS STRESS PERIOD. CURRENT PERIOD IS:       5

 PROCESSING AG STRESS PERIOD DATA

 READING AG STRESS PERIOD DATA

 READING IRRIGATION SEGMENT

 READING IRRIGATION WELL

 READING SUPPLEMENTAL WELL

 END PROCESSING AG STRESS PERIOD DATA OPTIONS
 
 SOLVING FOR HEAD 
                                                   Max.-Head-Change                         Max.-Flux-Residual
  Residual-Control   Outer-Iter.   Inner-Iter.     Column Row Layer    Maximum-Head-Change  Column Row Layer    Maximum-Flux-Residual          L2-NORM 
          0                 1           2             4   13     1      -0.6298700298E-02       4   13    1        -0.3612941271E+00      0.6577797140E+00
          0                 2           2             4   13     1       0.6107026001E-03       4   13    1         0.3601675459E-01      0.6542216040E-01
          0                 3           1             4   13     1      -0.4113355523E-04       4   13    1        -0.2494202498E-02      0.4450837133E-02

    ------------------------------------------------
       NWT REQUIRED            3 OUTER ITERATIONS 
       AND A TOTAL OF          5 INNER ITERATIONS.
    ------------------------------------------------

 NO OUTPUT CONTROL FOR STRESS PERIOD    5   TIME STEP    1
 
 SOLVING FOR HEAD 
                                                   Max.-Head-Change                         Max.-Flux-Residual
  Residual-Control   Outer-Iter.   Inner-Iter.     Column Row Layer    Maximum-Head-Change  Column Row Layer    Maximum-Flux-Residual          L2-NORM 
          0                 1           2             4   13     1      -0.5706167116E-02       4   13    1        -0.3271681183E+00      0.6134098322E+00
          0                 2           2             4   13     1       0.1719435422E-03       4   13    1         0.1018158892E-01      0.3264887041E-01
          0                 3           2             4   13     1      -0.1328580145E-03       4   13    1        -0.8038075075E-02      0.1393701596E-01
          0                 4           1             4   13     1      -0.8740781523E-04       4   13    1        -0.5284906408E-02      0.9334048974E-02

    ------------------------------------------------
       NWT REQUIRED            4 OUTER ITERATIONS 
       AND A TOTAL OF          7 INNER ITERATIONS.
    ------------------------------------------------

 OUTPUT CONTROL FOR STRESS PERIOD    5   TIME STEP    2
    PRINT BUDGET
    SAVE BUDGET
 UBDSV1 SAVING "         STORAGE" ON UNIT 102 AT TIME STEP  2, STRESS PERIOD   5
 UBDSV2 SAVING "   CONSTANT HEAD" ON UNIT 102 AT TIME STEP  2, STRESS PERIOD   5
 UBDSV1 SAVING "FLOW RIGHT FACE " ON UNIT 102 AT TIME STEP  2, STRESS PERIOD   5
 UBDSV1 SAVING "FLOW FRONT FACE " ON UNIT 102 AT TIME STEP  2, STRESS PERIOD   5

  HEAD DEP BOUNDS   PERIOD    5   STEP     2
 BOUNDARY      1   LAYER   1   ROW    13   COL     1   RATE   -0.289954    
 BOUNDARY      2   LAYER   1   ROW    14   COL     9   RATE    0.287882    



 STREAM LISTING     PERIOD      5   STEP        2

 LAYER ROW COL. STREAM  RCH.  FLOW INTO     FLOW TO   FLOW OUT OF   OVRLND.     DIRECT     STREAM       STREAM     STREAM     STREAM   STREAMBED  STREAMBED
                SEG.NO.  NO.  STRM. RCH.    AQUIFER    STRM. RCH.    RUNOFF     PRECIP       ET          HEAD       DEPTH      WIDTH   CONDCTNC.   GRADIENT

   1    1    1     1     1    1.0500E+01  1.5271E-01   1.0347E+01  0.000E+00  0.000E+00  0.000E+00  1.09396E+03  9.109E-01  8.677E+00  3.905E-02  1.304E+00
   1    2    2     1     2    1.0347E+01  2.3504E-01   1.0112E+01  0.000E+00  0.000E+00  0.000E+00  1.08896E+03  9.059E-01  8.597E+00  6.018E-02  1.302E+00
   1    3    3     1     3    1.0112E+01  1.9904E-01   9.9132E+00  0.000E+00  0.000E+00  0.000E+00  1.08332E+03  9.003E-01  8.505E+00  5.103E-02  1.300E+00
   1    3    4     1     4    9.9132E+00  1.8195E-01   9.7312E+00  0.000E+00  0.000E+00  0.000E+00  1.07830E+03  8.947E-01  8.417E+00  4.672E-02  1.298E+00
   1    4    5     2     1    7.7312E+00  2.8007E-01   7.4512E+00  0.000E+00  0.000E+00  0.000E+00  1.07252E+03  5.907E-01  1.200E+01  7.800E-02  1.197E+00
   1    5    6     2     2    7.4512E+00  2.1474E-01   7.2364E+00  0.000E+00  0.000E+00  0.000E+00  1.06709E+03  5.790E-01  1.200E+01  6.000E-02  1.193E+00
   1    6    6     2     3    7.2364E+00  2.1413E-01   7.0223E+00  0.000E+00  0.000E+00  0.000E+00  1.06236E+03  5.688E-01  1.200E+01  6.000E-02  1.190E+00
   1    7    6     2     4    7.0223E+00  2.1351E-01   6.8088E+00  0.000E+00  0.000E+00  0.000E+00  1.05763E+03  5.585E-01  1.200E+01  6.000E-02  1.186E+00
   1    8    6     2     5    6.8088E+00  2.1289E-01   6.5959E+00  0.000E+00  0.000E+00  0.000E+00  1.05291E+03  5.481E-01  1.200E+01  6.000E-02  1.183E+00
   1    3    5     3     1    2.0000E+00  2.8252E-01   1.7175E+00  0.000E+00  0.000E+00  0.000E+00  1.07555E+03  1.909E+00  9.636E+00  7.227E-02  1.955E+00
   1    3    6     3     2    1.7175E+00  2.4905E-01   1.4684E+00  0.000E+00  0.000E+00  0.000E+00  1.07264E+03  1.727E+00  8.909E+00  6.682E-02  1.864E+00
   1    3    7     3     3    1.4684E+00  1.9718E-01   1.2712E+00  0.000E+00  0.000E+00  0.000E+00  1.06987E+03  1.555E+00  8.218E+00  5.547E-02  1.777E+00
   1    4    8     3     4    1.2712E+00  2.2567E-01   1.0456E+00  0.000E+00  0.000E+00  0.000E+00  1.06682E+03  1.364E+00  7.455E+00  6.709E-02  1.682E+00
   1    5    8     3     5    1.0456E+00  1.5790E-01   8.8768E-01  0.000E+00  0.000E+00  0.000E+00  1.06362E+03  1.164E+00  6.655E+00  4.991E-02  1.582E+00
   1    6    8     3     6    8.8768E-01  5.5980E-02   8.3170E-01  0.000E+00  0.000E+00  0.000E+00  1.06158E+03  1.036E+00  6.145E+00  1.844E-02  1.518E+00
   1    5   10     4     1    1.0000E+01  9.0919E-02   9.9091E+00  0.000E+00  0.000E+00  0.000E+00  1.07836E+03  6.368E-01  1.000E+01  2.500E-02  1.212E+00
   1    5    9     4     2    9.9091E+00  1.8158E-01   9.7275E+00  0.000E+00  0.000E+00  0.000E+00  1.07154E+03  6.315E-01  1.000E+01  5.000E-02  1.211E+00
   1    6    8     4     3    9.7275E+00  1.2689E-01   9.6006E+00  0.000E+00  0.000E+00  0.000E+00  1.06381E+03  6.256E-01  1.000E+01  3.500E-02  1.209E+00
   1    6    8     5     1    1.0432E+01  2.2686E-01   1.0205E+01  0.000E+00  0.000E+00  0.000E+00  1.05868E+03  6.790E-01  1.542E+01  6.166E-02  1.226E+00
   1    7    7     5     2    1.0205E+01  2.7894E-01   9.9265E+00  0.000E+00  0.000E+00  0.000E+00  1.05417E+03  6.732E-01  1.519E+01  7.594E-02  1.224E+00
   1    8    7     5     3    9.9265E+00  1.9221E-01   9.7343E+00  0.000E+00  0.000E+00  0.000E+00  1.04992E+03  6.676E-01  1.497E+01  5.241E-02  1.223E+00
   1    8    6     5     4    9.7343E+00  1.3577E-01   9.5985E+00  0.000E+00  0.000E+00  0.000E+00  1.04691E+03  6.637E-01  1.482E+01  3.706E-02  1.221E+00
   1    9    6     6     1    1.4387E+01  2.3280E-01   1.4154E+01  0.000E+00  0.000E+00  0.000E+00  1.04361E+03  8.800E-01  1.200E+01  6.000E-02  1.293E+00
   1   10    7     6     2    1.4154E+01  2.3229E-01   1.3922E+01  0.000E+00  0.000E+00  0.000E+00  1.03905E+03  8.715E-01  1.200E+01  6.000E-02  1.291E+00
   1   11    7     6     3    1.3922E+01  2.3178E-01   1.3690E+01  0.000E+00  0.000E+00  0.000E+00  1.03450E+03  8.630E-01  1.200E+01  6.000E-02  1.288E+00
   1   12    7     6     4    1.3690E+01  2.3126E-01   1.3459E+01  0.000E+00  0.000E+00  0.000E+00  1.02995E+03  8.544E-01  1.200E+01  6.000E-02  1.285E+00
   1   13    7     6     5    1.3459E+01 -2.3529E-02   1.3482E+01  0.000E+00  0.000E+00  0.000E+00  1.02676E+03  8.505E-01  1.200E+01  2.400E-01 -3.268E-02
   1   14    9     7     1    1.5000E+02  1.3670E+00   1.4863E+02  0.000E+00  0.000E+00  0.000E+00  1.03987E+03  2.288E+00  5.529E+01  5.593E-01  8.147E-01
   1   13    8     7     2    1.4863E+02  1.9171E+00   1.4672E+02  0.000E+00  0.000E+00  0.000E+00  1.03478E+03  2.279E+00  5.526E+01  6.148E-01  1.039E+00
   1   13    7     7     3    1.4672E+02  1.5810E+00   1.4513E+02  0.000E+00  0.000E+00  0.000E+00  1.02969E+03  2.270E+00  5.521E+01  5.584E-01  9.437E-01
   1   13    6     8     1    1.5862E+02  9.5457E-01   1.5766E+02  0.000E+00  0.000E+00  0.000E+00  1.02475E+03  2.875E+00  4.168E+01  4.248E-01  7.491E-01
   1   13    5     8     2    1.5766E+02  2.0663E-01   1.5746E+02  0.000E+00  0.000E+00  0.000E+00  1.01850E+03  2.871E+00  4.163E+01  4.242E-01  1.624E-01
   1   13    4     8     3    1.5746E+02 -2.5479E+00   1.6000E+02  0.000E+00  0.000E+00  0.000E+00  1.01225E+03  2.879E+00  4.174E+01  4.254E+00 -1.997E-01
   1   13    3     8     4    1.6000E+02 -3.8213E+00   1.6382E+02  0.000E+00  0.000E+00  0.000E+00  1.00603E+03  2.900E+00  4.205E+01  4.285E+00 -2.972E-01
   1   13    2     8     5    1.6382E+02 -2.8473E+00   1.6667E+02  0.000E+00  0.000E+00  0.000E+00  9.99797E+02  2.922E+00  4.237E+01  4.318E+00 -2.198E-01
   1   13    1     8     6    1.6667E+02 -2.1275E+00   1.6880E+02  0.000E+00  0.000E+00  0.000E+00  9.94814E+02  2.939E+00  4.261E+01  2.605E+00 -2.722E-01
   1    8    6     9     1    1.8078E+00  0.0000E+00   1.8078E+00  0.000E+00  0.000E+00  0.000E+00  1.07950E+03  7.529E-01  4.000E+00  0.000E+00  1.251E+00
   1    8    5     9     2    1.8078E+00  0.0000E+00   1.8078E+00  0.000E+00  0.000E+00  0.000E+00  1.07900E+03  7.529E-01  4.000E+00  0.000E+00  1.251E+00



 UBDSV3 SAVING "           GW ET" ON UNIT  61 AT TIME STEP  2, STRESS PERIOD   5
 UBDSV3 SAVING "    UZF RECHARGE" ON UNIT  61 AT TIME STEP  2, STRESS PERIOD   5
 UBDSV3 SAVING " SURFACE LEAKAGE" ON UNIT  61 AT TIME STEP  2, STRESS PERIOD   5
 UBDSV3 SAVING "       HORT+DUNN" ON UNIT  61 AT TIME STEP  2, STRESS PERIOD   5
 UBDSV3 SAVING "  STORAGE CHANGE" ON UNIT  61 AT TIME STEP  2, STRESS PERIOD   5


UNSATURATED ZONE PACKAGE VOLUMETRIC BUDGET FOR  TIME STEP     2 STRESS PERIOD    5
  ------------------------------------------------------------------------------



     CUMULATIVE VOLUMES      L**3       RATES FOR THIS TIME STEP      L**3/T
     ------------------                 ------------------------

           IN:                                      IN:
           ---                                      ---
        INFILTRATION =    35779664.3870          INFILTRATION =           6.2153

          OUT:                                     OUT:
          ----                                     ----
              UZF ET =    11097837.2295                UZF ET =          25.0948
        UZF RECHARGE =       73224.0000          UZF RECHARGE =       0.0000E+00

            IN - OUT =    24608603.1575              IN - OUT =         -18.8795

          STORAGE:                                 STORAGE:
          --------                                 --------
      STORAGE CHANGE =    24608602.8723        STORAGE CHANGE =         -18.8795

 PERCENT DISCREPANCY IS DIFFERENCE BETWEEN IN-OUT MINUS CHANGE IN STORAGE
 DIVIDED BY THE AVERAGE OF IN AND OUT TIMES 100

 PERCENT DISCREPANCY =           0.00     PERCENT DISCREPANCY =           0.00






 

            AG WELLS      PERIOD    5   STEP   2
 AG WELL      1   LAYER   1   ROW     6   COL     4   RATE     0.00000    
 AG WELL      2   LAYER   1   ROW     6   COL     5   RATE     0.00000    
 AG WELL      3   LAYER   1   ROW     7   COL     4   RATE     0.00000    
 AG WELL      4   LAYER   1   ROW     7   COL     5   RATE     0.00000    
 AG WELL      5   LAYER   1   ROW     8   COL     4   RATE     0.00000    
 AG WELL      6   LAYER   1   ROW     8   COL     5   RATE     0.00000    
 
 

   DIVERSION SEGMENTS     PERIOD    5   STEP   2
 SEGMENT      9   RATE     1.80778    
 
 

        SW IRRIGATION     PERIOD    5   STEP   2
 SEGMENT      9   ROW     6   COL     4   RATE    0.301302    
 SEGMENT      9   ROW     6   COL     5   RATE    0.301302    
 SEGMENT      9   ROW     7   COL     4   RATE    0.301302    
 SEGMENT      9   ROW     7   COL     5   RATE    0.301302    
 SEGMENT      9   ROW     8   COL     4   RATE    0.301302    
 SEGMENT      9   ROW     8   COL     5   RATE    0.301302    
 
 

        GW IRRIGATION     PERIOD    5   STEP   2
 AG WELL      1   ROW     6   COL     4   RATE     0.00000    
 AG WELL      2   ROW     6   COL     5   RATE     0.00000    
 AG WELL      3   ROW     7   COL     4   RATE     0.00000    
 AG WELL      4   ROW     7   COL     5   RATE     0.00000    
 AG WELL      5   ROW     8   COL     4   RATE     0.00000    
 AG WELL      6   ROW     8   COL     5   RATE     0.00000    
 
1
  VOLUMETRIC BUDGET FOR AGRICULTURAL FIELDS AT  END OF TIME STEP    2, STRESS PERIOD   5
  ------------------------------------------------------------------------------

     CUMULATIVE VOLUMES      L**3       RATES FOR THIS TIME STEP      L**3/T
     ------------------                 ------------------------

           IN:                                      IN:
           ---                                      ---
               AG WELLS  =           0.0000                 AG WELLS  =           0.0000
      DIVERSION SEGMENTS =      158481.9062        DIVERSION SEGMENTS =           1.8078
           GW IRRIGATION =           0.0000             GW IRRIGATION =           0.0000
           SW IRRIGATION =           0.0000             SW IRRIGATION =           0.0000
        SYSTEM LOSSES GW =           0.0000          SYSTEM LOSSES GW =           0.0000
        SYSTEM LOSSES SW =           0.0000          SYSTEM LOSSES SW =           0.0000

                TOTAL IN =      158481.9062                  TOTAL IN =           1.8078

          OUT:                                     OUT:
          ----                                     ----
               AG WELLS  =           0.0000                 AG WELLS  =           0.0000
      DIVERSION SEGMENTS =           0.0000        DIVERSION SEGMENTS =           0.0000
           GW IRRIGATION =           0.0000             GW IRRIGATION =           0.0000
           SW IRRIGATION =      158485.0625             SW IRRIGATION =           1.8078
        SYSTEM LOSSES GW =           0.0000          SYSTEM LOSSES GW =           0.0000
        SYSTEM LOSSES SW =           0.0000          SYSTEM LOSSES SW =           0.0000

               TOTAL OUT =      158485.0625                 TOTAL OUT =           1.8078

                IN - OUT =          -3.1562                  IN - OUT =      -3.6001E-05

     PERCENT DISCREPANCY =          -0.00         PERCENT DISCREPANCY =          -0.00



1
  VOLUMETRIC BUDGET FOR ENTIRE MODEL AT END OF TIME STEP    2, STRESS PERIOD   5
  ------------------------------------------------------------------------------

     CUMULATIVE VOLUMES      L**3       RATES FOR THIS TIME STEP      L**3/T
     ------------------                 ------------------------

           IN:                                      IN:
           ---                                      ---
             STORAGE     =     4579778.0000               STORAGE     =           1.6112
       CONSTANT HEAD     =           0.0000         CONSTANT HEAD     =           0.0000
     HEAD DEP BOUNDS     =     2346258.2500       HEAD DEP BOUNDS     =           0.2879
      STREAM LEAKAGE     =    95433936.0000        STREAM LEAKAGE     =          11.2600
        UZF RECHARGE     =       73223.9531          UZF RECHARGE     =           0.0000
               GW ET     =           0.0000                 GW ET     =           0.0000
     SURFACE LEAKAGE     =           0.0000       SURFACE LEAKAGE     =           0.0000
           AG WELLS      =           0.0000             AG WELLS      =           0.0000

                TOTAL IN =   102433192.0000                  TOTAL IN =          13.1590

          OUT:                                     OUT:
          ----                                     ----
             STORAGE     =    17818856.0000               STORAGE     =           1.5004
       CONSTANT HEAD     =           0.0000         CONSTANT HEAD     =           0.0000
     HEAD DEP BOUNDS     =     2348547.7500       HEAD DEP BOUNDS     =           0.2900
      STREAM LEAKAGE     =    82269440.0000        STREAM LEAKAGE     =          11.3675
        UZF RECHARGE     =           0.0000          UZF RECHARGE     =           0.0000
               GW ET     =           0.0000                 GW ET     =           0.0000
     SURFACE LEAKAGE     =           0.0000       SURFACE LEAKAGE     =           0.0000
           AG WELLS      =           0.0000             AG WELLS      =           0.0000

               TOTAL OUT =   102436848.0000                 TOTAL OUT =          13.1578

                IN - OUT =       -3656.0000                  IN - OUT =       1.2207E-03

     PERCENT DISCREPANCY =          -0.00         PERCENT DISCREPANCY =           0.01






         TIME SUMMARY AT END OF TIME STEP    2 IN STRESS PERIOD    5
                    SECONDS     MINUTES      HOURS       DAYS        YEARS
                    -----------------------------------------------------------
   TIME STEP LENGTH  87667.      1461.1      24.352      1.0147     2.77799E-03
 STRESS PERIOD TIME 1.75333E+05  2922.2      48.704      2.0293     5.55598E-03
         TOTAL TIME 8.15173E+06 1.35862E+05  2264.4      94.349     0.25831    
1
 
 SOLVING FOR HEAD 
                                                   Max.-Head-Change                         Max.-Flux-Residual
  Residual-Control   Outer-Iter.   Inner-Iter.     Column Row Layer    Maximum-Head-Change  Column Row Layer    Maximum-Flux-Residual          L2-NORM 
          0                 1           2             4   13     1      -0.5118356932E-02       4   13    1        -0.2933234886E+00      0.5696496577E+00
          0                 2           2             7   13     1      -0.2818580625E-03       7   13    1        -0.1561348361E-01      0.3633146035E-01
          0                 3           2             4   13     1      -0.3267241706E-03       4   13    1        -0.1869261213E-01      0.3287292043E-01
          0                 4           2             4   13     1      -0.1457204978E-03       4   13    1        -0.8334058707E-02      0.1489309629E-01
          0                 5           1             4   13     1      -0.6718041387E-04       4   13    1        -0.3842281790E-02      0.6848783786E-02

    ------------------------------------------------
       NWT REQUIRED            5 OUTER ITERATIONS 
       AND A TOTAL OF          9 INNER ITERATIONS.
    ------------------------------------------------

 OUTPUT CONTROL FOR STRESS PERIOD    5   TIME STEP    3
    PRINT BUDGET
    SAVE BUDGET
 UBDSV1 SAVING "         STORAGE" ON UNIT 102 AT TIME STEP  3, STRESS PERIOD   5
 UBDSV2 SAVING "   CONSTANT HEAD" ON UNIT 102 AT TIME STEP  3, STRESS PERIOD   5
 UBDSV1 SAVING "FLOW RIGHT FACE " ON UNIT 102 AT TIME STEP  3, STRESS PERIOD   5
 UBDSV1 SAVING "FLOW FRONT FACE " ON UNIT 102 AT TIME STEP  3, STRESS PERIOD   5

  HEAD DEP BOUNDS   PERIOD    5   STEP     3
 BOUNDARY      1   LAYER   1   ROW    13   COL     1   RATE   -0.289837    
 BOUNDARY      2   LAYER   1   ROW    14   COL     9   RATE    0.287883    



 STREAM LISTING     PERIOD      5   STEP        3

 LAYER ROW COL. STREAM  RCH.  FLOW INTO     FLOW TO   FLOW OUT OF   OVRLND.     DIRECT     STREAM       STREAM     STREAM     STREAM   STREAMBED  STREAMBED
                SEG.NO.  NO.  STRM. RCH.    AQUIFER    STRM. RCH.    RUNOFF     PRECIP       ET          HEAD       DEPTH      WIDTH   CONDCTNC.   GRADIENT

   1    1    1     1     1    1.0500E+01  1.5271E-01   1.0347E+01  0.000E+00  0.000E+00  0.000E+00  1.09396E+03  9.109E-01  8.677E+00  3.905E-02  1.304E+00
   1    2    2     1     2    1.0347E+01  2.3504E-01   1.0112E+01  0.000E+00  0.000E+00  0.000E+00  1.08896E+03  9.059E-01  8.597E+00  6.018E-02  1.302E+00
   1    3    3     1     3    1.0112E+01  1.9904E-01   9.9132E+00  0.000E+00  0.000E+00  0.000E+00  1.08332E+03  9.003E-01  8.505E+00  5.103E-02  1.300E+00
   1    3    4     1     4    9.9132E+00  1.8195E-01   9.7312E+00  0.000E+00  0.000E+00  0.000E+00  1.07830E+03  8.947E-01  8.417E+00  4.672E-02  1.298E+00
   1    4    5     2     1    7.7312E+00  2.8007E-01   7.4512E+00  0.000E+00  0.000E+00  0.000E+00  1.07252E+03  5.907E-01  1.200E+01  7.800E-02  1.197E+00
   1    5    6     2     2    7.4512E+00  2.1474E-01   7.2364E+00  0.000E+00  0.000E+00  0.000E+00  1.06709E+03  5.790E-01  1.200E+01  6.000E-02  1.193E+00
   1    6    6     2     3    7.2364E+00  2.1413E-01   7.0223E+00  0.000E+00  0.000E+00  0.000E+00  1.06236E+03  5.688E-01  1.200E+01  6.000E-02  1.190E+00
   1    7    6     2     4    7.0223E+00  2.1351E-01   6.8088E+00  0.000E+00  0.000E+00  0.000E+00  1.05763E+03  5.585E-01  1.200E+01  6.000E-02  1.186E+00
   1    8    6     2     5    6.8088E+00  2.1289E-01   6.5959E+00  0.000E+00  0.000E+00  0.000E+00  1.05291E+03  5.481E-01  1.200E+01  6.000E-02  1.183E+00
   1    3    5     3     1    2.0000E+00  2.8252E-01   1.7175E+00  0.000E+00  0.000E+00  0.000E+00  1.07555E+03  1.909E+00  9.636E+00  7.227E-02  1.955E+00
   1    3    6     3     2    1.7175E+00  2.4905E-01   1.4684E+00  0.000E+00  0.000E+00  0.000E+00  1.07264E+03  1.727E+00  8.909E+00  6.682E-02  1.864E+00
   1    3    7     3     3    1.4684E+00  1.9718E-01   1.2712E+00  0.000E+00  0.000E+00  0.000E+00  1.06987E+03  1.555E+00  8.218E+00  5.547E-02  1.777E+00
   1    4    8     3     4    1.2712E+00  2.2567E-01   1.0456E+00  0.000E+00  0.000E+00  0.000E+00  1.06682E+03  1.364E+00  7.455E+00  6.709E-02  1.682E+00
   1    5    8     3     5    1.0456E+00  1.5790E-01   8.8768E-01  0.000E+00  0.000E+00  0.000E+00  1.06362E+03  1.164E+00  6.655E+00  4.991E-02  1.582E+00
   1    6    8     3     6    8.8768E-01  5.5980E-02   8.3170E-01  0.000E+00  0.000E+00  0.000E+00  1.06158E+03  1.036E+00  6.145E+00  1.844E-02  1.518E+00
   1    5   10     4     1    1.0000E+01  9.0919E-02   9.9091E+00  0.000E+00  0.000E+00  0.000E+00  1.07836E+03  6.368E-01  1.000E+01  2.500E-02  1.212E+00
   1    5    9     4     2    9.9091E+00  1.8158E-01   9.7275E+00  0.000E+00  0.000E+00  0.000E+00  1.07154E+03  6.315E-01  1.000E+01  5.000E-02  1.211E+00
   1    6    8     4     3    9.7275E+00  1.2689E-01   9.6006E+00  0.000E+00  0.000E+00  0.000E+00  1.06381E+03  6.256E-01  1.000E+01  3.500E-02  1.209E+00
   1    6    8     5     1    1.0432E+01  2.2686E-01   1.0205E+01  0.000E+00  0.000E+00  0.000E+00  1.05868E+03  6.790E-01  1.542E+01  6.166E-02  1.226E+00
   1    7    7     5     2    1.0205E+01  2.7894E-01   9.9265E+00  0.000E+00  0.000E+00  0.000E+00  1.05417E+03  6.732E-01  1.519E+01  7.594E-02  1.224E+00
   1    8    7     5     3    9.9265E+00  1.9221E-01   9.7343E+00  0.000E+00  0.000E+00  0.000E+00  1.04992E+03  6.676E-01  1.497E+01  5.241E-02  1.223E+00
   1    8    6     5     4    9.7343E+00  1.3577E-01   9.5985E+00  0.000E+00  0.000E+00  0.000E+00  1.04691E+03  6.637E-01  1.482E+01  3.706E-02  1.221E+00
   1    9    6     6     1    1.2790E+01  2.2890E-01   1.2561E+01  0.000E+00  0.000E+00  0.000E+00  1.04354E+03  8.150E-01  1.200E+01  6.000E-02  1.272E+00
   1   10    7     6     2    1.2561E+01  2.2837E-01   1.2332E+01  0.000E+00  0.000E+00  0.000E+00  1.03899E+03  8.062E-01  1.200E+01  6.000E-02  1.269E+00
   1   11    7     6     3    1.2332E+01  2.2784E-01   1.2105E+01  0.000E+00  0.000E+00  0.000E+00  1.03443E+03  7.973E-01  1.200E+01  6.000E-02  1.266E+00
   1   12    7     6     4    1.2105E+01  2.2730E-01   1.1877E+01  0.000E+00  0.000E+00  0.000E+00  1.02988E+03  7.884E-01  1.200E+01  6.000E-02  1.263E+00
   1   13    7     6     5    1.1877E+01 -3.9219E-02   1.1916E+01  0.000E+00  0.000E+00  0.000E+00  1.02669E+03  7.847E-01  1.200E+01  2.400E-01 -5.447E-02
   1   14    9     7     1    1.5000E+02  1.3670E+00   1.4863E+02  0.000E+00  0.000E+00  0.000E+00  1.03987E+03  2.288E+00  5.529E+01  5.593E-01  8.147E-01
   1   13    8     7     2    1.4863E+02  1.9170E+00   1.4672E+02  0.000E+00  0.000E+00  0.000E+00  1.03478E+03  2.279E+00  5.526E+01  6.148E-01  1.039E+00
   1   13    7     7     3    1.4672E+02  1.5812E+00   1.4513E+02  0.000E+00  0.000E+00  0.000E+00  1.02969E+03  2.270E+00  5.521E+01  5.584E-01  9.439E-01
   1   13    6     8     1    1.5705E+02  9.4618E-01   1.5611E+02  0.000E+00  0.000E+00  0.000E+00  1.02474E+03  2.863E+00  4.151E+01  4.230E-01  7.455E-01
   1   13    5     8     2    1.5611E+02  2.0113E-01   1.5590E+02  0.000E+00  0.000E+00  0.000E+00  1.01848E+03  2.859E+00  4.146E+01  4.225E-01  1.587E-01
   1   13    4     8     3    1.5590E+02 -2.5618E+00   1.5847E+02  0.000E+00  0.000E+00  0.000E+00  1.01224E+03  2.867E+00  4.157E+01  4.237E+00 -2.016E-01
   1   13    3     8     4    1.5847E+02 -3.8323E+00   1.6230E+02  0.000E+00  0.000E+00  0.000E+00  1.00601E+03  2.889E+00  4.189E+01  4.269E+00 -2.993E-01
   1   13    2     8     5    1.6230E+02 -2.8597E+00   1.6516E+02  0.000E+00  0.000E+00  0.000E+00  9.99786E+02  2.911E+00  4.221E+01  4.302E+00 -2.216E-01
   1   13    1     8     6    1.6516E+02 -2.1399E+00   1.6730E+02  0.000E+00  0.000E+00  0.000E+00  9.94803E+02  2.928E+00  4.245E+01  2.596E+00 -2.748E-01
   1    8    6     9     1    3.4047E+00  0.0000E+00   3.4047E+00  0.000E+00  0.000E+00  0.000E+00  1.07992E+03  1.173E+00  4.000E+00  0.000E+00  1.391E+00
   1    8    5     9     2    3.4047E+00  0.0000E+00   3.4047E+00  0.000E+00  0.000E+00  0.000E+00  1.07942E+03  1.173E+00  4.000E+00  0.000E+00  1.391E+00



 UBDSV3 SAVING "           GW ET" ON UNIT  61 AT TIME STEP  3, STRESS PERIOD   5
 UBDSV3 SAVING "    UZF RECHARGE" ON UNIT  61 AT TIME STEP  3, STRESS PERIOD   5
 UBDSV3 SAVING " SURFACE LEAKAGE" ON UNIT  61 AT TIME STEP  3, STRESS PERIOD   5
 UBDSV3 SAVING "       HORT+DUNN" ON UNIT  61 AT TIME STEP  3, STRESS PERIOD   5
 UBDSV3 SAVING "  STORAGE CHANGE" ON UNIT  61 AT TIME STEP  3, STRESS PERIOD   5


UNSATURATED ZONE PACKAGE VOLUMETRIC BUDGET FOR  TIME STEP     3 STRESS PERIOD    5
  ------------------------------------------------------------------------------



     CUMULATIVE VOLUMES      L**3       RATES FOR THIS TIME STEP      L**3/T
     ------------------                 ------------------------

           IN:                                      IN:
           ---                                      ---
        INFILTRATION =    36464543.4719          INFILTRATION =           7.8123

          OUT:                                     OUT:
          ----                                     ----
              UZF ET =    13117894.0820                UZF ET =          23.0425
        UZF RECHARGE =       73224.0000          UZF RECHARGE =       0.0000E+00

            IN - OUT =    23273425.3899              IN - OUT =         -15.2302

          STORAGE:                                 STORAGE:
          --------                                 --------
      STORAGE CHANGE =    23273425.0717        STORAGE CHANGE =         -15.2302

 PERCENT DISCREPANCY IS DIFFERENCE BETWEEN IN-OUT MINUS CHANGE IN STORAGE
 DIVIDED BY THE AVERAGE OF IN AND OUT TIMES 100

 PERCENT DISCREPANCY =           0.00     PERCENT DISCREPANCY =           0.00






 

            AG WELLS      PERIOD    5   STEP   3
 AG WELL      1   LAYER   1   ROW     6   COL     4   RATE     0.00000    
 AG WELL      2   LAYER   1   ROW     6   COL     5   RATE     0.00000    
 AG WELL      3   LAYER   1   ROW     7   COL     4   RATE     0.00000    
 AG WELL      4   LAYER   1   ROW     7   COL     5   RATE     0.00000    
 AG WELL      5   LAYER   1   ROW     8   COL     4   RATE     0.00000    
 AG WELL      6   LAYER   1   ROW     8   COL     5   RATE     0.00000    
 
 

   DIVERSION SEGMENTS     PERIOD    5   STEP   3
 SEGMENT      9   RATE     3.40474    
 
 

        SW IRRIGATION     PERIOD    5   STEP   3
 SEGMENT      9   ROW     6   COL     4   RATE    0.567468    
 SEGMENT      9   ROW     6   COL     5   RATE    0.567468    
 SEGMENT      9   ROW     7   COL     4   RATE    0.567468    
 SEGMENT      9   ROW     7   COL     5   RATE    0.567468    
 SEGMENT      9   ROW     8   COL     4   RATE    0.567468    
 SEGMENT      9   ROW     8   COL     5   RATE    0.567468    
 
 

        GW IRRIGATION     PERIOD    5   STEP   3
 AG WELL      1   ROW     6   COL     4   RATE     0.00000    
 AG WELL      2   ROW     6   COL     5   RATE     0.00000    
 AG WELL      3   ROW     7   COL     4   RATE     0.00000    
 AG WELL      4   ROW     7   COL     5   RATE     0.00000    
 AG WELL      5   ROW     8   COL     4   RATE     0.00000    
 AG WELL      6   ROW     8   COL     5   RATE     0.00000    
 
1
  VOLUMETRIC BUDGET FOR AGRICULTURAL FIELDS AT  END OF TIME STEP    3, STRESS PERIOD   5
  ------------------------------------------------------------------------------

     CUMULATIVE VOLUMES      L**3       RATES FOR THIS TIME STEP      L**3/T
     ------------------                 ------------------------

           IN:                                      IN:
           ---                                      ---
               AG WELLS  =           0.0000                 AG WELLS  =           0.0000
      DIVERSION SEGMENTS =      456964.2500        DIVERSION SEGMENTS =           3.4047
           GW IRRIGATION =           0.0000             GW IRRIGATION =           0.0000
           SW IRRIGATION =           0.0000             SW IRRIGATION =           0.0000
        SYSTEM LOSSES GW =           0.0000          SYSTEM LOSSES GW =           0.0000
        SYSTEM LOSSES SW =           0.0000          SYSTEM LOSSES SW =           0.0000

                TOTAL IN =      456964.2500                  TOTAL IN =           3.4047

          OUT:                                     OUT:
          ----                                     ----
               AG WELLS  =           0.0000                 AG WELLS  =           0.0000
      DIVERSION SEGMENTS =           0.0000        DIVERSION SEGMENTS =           0.0000
           GW IRRIGATION =           0.0000             GW IRRIGATION =           0.0000
           SW IRRIGATION =      456973.3438             SW IRRIGATION =           3.4048
        SYSTEM LOSSES GW =           0.0000          SYSTEM LOSSES GW =           0.0000
        SYSTEM LOSSES SW =           0.0000          SYSTEM LOSSES SW =           0.0000

               TOTAL OUT =      456973.3438                 TOTAL OUT =           3.4048

                IN - OUT =          -9.0938                  IN - OUT =      -6.7949E-05

     PERCENT DISCREPANCY =          -0.00         PERCENT DISCREPANCY =          -0.00



1
  VOLUMETRIC BUDGET FOR ENTIRE MODEL AT END OF TIME STEP    3, STRESS PERIOD   5
  ------------------------------------------------------------------------------

     CUMULATIVE VOLUMES      L**3       RATES FOR THIS TIME STEP      L**3/T
     ------------------                 ------------------------

           IN:                                      IN:
           ---                                      ---
             STORAGE     =     4727822.0000               STORAGE     =           1.6887
       CONSTANT HEAD     =           0.0000         CONSTANT HEAD     =           0.0000
     HEAD DEP BOUNDS     =     2371496.0000       HEAD DEP BOUNDS     =           0.2879
      STREAM LEAKAGE     =    96418480.0000        STREAM LEAKAGE     =          11.2305
        UZF RECHARGE     =       73223.9531          UZF RECHARGE     =           0.0000
               GW ET     =           0.0000                 GW ET     =           0.0000
     SURFACE LEAKAGE     =           0.0000       SURFACE LEAKAGE     =           0.0000
           AG WELLS      =           0.0000             AG WELLS      =           0.0000

                TOTAL IN =   103591024.0000                  TOTAL IN =          13.2071

          OUT:                                     OUT:
          ----                                     ----
             STORAGE     =    17948844.0000               STORAGE     =           1.4828
       CONSTANT HEAD     =           0.0000         CONSTANT HEAD     =           0.0000
     HEAD DEP BOUNDS     =     2373956.7500       HEAD DEP BOUNDS     =           0.2898
      STREAM LEAKAGE     =    83271720.0000        STREAM LEAKAGE     =          11.4329
        UZF RECHARGE     =           0.0000          UZF RECHARGE     =           0.0000
               GW ET     =           0.0000                 GW ET     =           0.0000
     SURFACE LEAKAGE     =           0.0000       SURFACE LEAKAGE     =           0.0000
           AG WELLS      =           0.0000             AG WELLS      =           0.0000

               TOTAL OUT =   103594520.0000                 TOTAL OUT =          13.2055

                IN - OUT =       -3496.0000                  IN - OUT =       1.6661E-03

     PERCENT DISCREPANCY =          -0.00         PERCENT DISCREPANCY =           0.01






         TIME SUMMARY AT END OF TIME STEP    3 IN STRESS PERIOD    5
                    SECONDS     MINUTES      HOURS       DAYS        YEARS
                    -----------------------------------------------------------
   TIME STEP LENGTH  87667.      1461.1      24.352      1.0147     2.77799E-03
 STRESS PERIOD TIME 2.63000E+05  4383.3      73.056      3.0440     8.33397E-03
         TOTAL TIME 8.23939E+06 1.37323E+05  2288.7      95.363     0.26109    
1
 
 SOLVING FOR HEAD 
                                                   Max.-Head-Change                         Max.-Flux-Residual
  Residual-Control   Outer-Iter.   Inner-Iter.     Column Row Layer    Maximum-Head-Change  Column Row Layer    Maximum-Flux-Residual          L2-NORM 
          0                 1           2             2   13     1      -0.4562243182E-02       4   13    1        -0.2592253574E+00      0.5259469524E+00
          0                 2           2             7   13     1      -0.2834413011E-03       7   13    1        -0.1569977451E-01      0.3882746929E-01
          0                 3           2             4   13     1      -0.3272268607E-03       4   13    1        -0.1871945057E-01      0.3306250287E-01
          0                 4           2             4   13     1      -0.1394580812E-03       4   13    1        -0.7976061659E-02      0.1424307410E-01
          0                 5           1             4   13     1      -0.7203678449E-04       4   13    1        -0.4120025271E-02      0.7339650847E-02

    ------------------------------------------------
       NWT REQUIRED            5 OUTER ITERATIONS 
       AND A TOTAL OF          9 INNER ITERATIONS.
    ------------------------------------------------

 OUTPUT CONTROL FOR STRESS PERIOD    5   TIME STEP    4
    PRINT BUDGET
    SAVE BUDGET
 UBDSV1 SAVING "         STORAGE" ON UNIT 102 AT TIME STEP  4, STRESS PERIOD   5
 UBDSV2 SAVING "   CONSTANT HEAD" ON UNIT 102 AT TIME STEP  4, STRESS PERIOD   5
 UBDSV1 SAVING "FLOW RIGHT FACE " ON UNIT 102 AT TIME STEP  4, STRESS PERIOD   5
 UBDSV1 SAVING "FLOW FRONT FACE " ON UNIT 102 AT TIME STEP  4, STRESS PERIOD   5

  HEAD DEP BOUNDS   PERIOD    5   STEP     4
 BOUNDARY      1   LAYER   1   ROW    13   COL     1   RATE   -0.289724    
 BOUNDARY      2   LAYER   1   ROW    14   COL     9   RATE    0.287884    



 STREAM LISTING     PERIOD      5   STEP        4

 LAYER ROW COL. STREAM  RCH.  FLOW INTO     FLOW TO   FLOW OUT OF   OVRLND.     DIRECT     STREAM       STREAM     STREAM     STREAM   STREAMBED  STREAMBED
                SEG.NO.  NO.  STRM. RCH.    AQUIFER    STRM. RCH.    RUNOFF     PRECIP       ET          HEAD       DEPTH      WIDTH   CONDCTNC.   GRADIENT

   1    1    1     1     1    1.0500E+01  1.5271E-01   1.0347E+01  0.000E+00  0.000E+00  0.000E+00  1.09396E+03  9.109E-01  8.677E+00  3.905E-02  1.304E+00
   1    2    2     1     2    1.0347E+01  2.3504E-01   1.0112E+01  0.000E+00  0.000E+00  0.000E+00  1.08896E+03  9.059E-01  8.597E+00  6.018E-02  1.302E+00
   1    3    3     1     3    1.0112E+01  1.9904E-01   9.9132E+00  0.000E+00  0.000E+00  0.000E+00  1.08332E+03  9.003E-01  8.505E+00  5.103E-02  1.300E+00
   1    3    4     1     4    9.9132E+00  1.8195E-01   9.7312E+00  0.000E+00  0.000E+00  0.000E+00  1.07830E+03  8.947E-01  8.417E+00  4.672E-02  1.298E+00
   1    4    5     2     1    7.7312E+00  2.8007E-01   7.4512E+00  0.000E+00  0.000E+00  0.000E+00  1.07252E+03  5.907E-01  1.200E+01  7.800E-02  1.197E+00
   1    5    6     2     2    7.4512E+00  2.1474E-01   7.2364E+00  0.000E+00  0.000E+00  0.000E+00  1.06709E+03  5.790E-01  1.200E+01  6.000E-02  1.193E+00
   1    6    6     2     3    7.2364E+00  2.1413E-01   7.0223E+00  0.000E+00  0.000E+00  0.000E+00  1.06236E+03  5.688E-01  1.200E+01  6.000E-02  1.190E+00
   1    7    6     2     4    7.0223E+00  2.1351E-01   6.8088E+00  0.000E+00  0.000E+00  0.000E+00  1.05763E+03  5.585E-01  1.200E+01  6.000E-02  1.186E+00
   1    8    6     2     5    6.8088E+00  2.1289E-01   6.5959E+00  0.000E+00  0.000E+00  0.000E+00  1.05291E+03  5.481E-01  1.200E+01  6.000E-02  1.183E+00
   1    3    5     3     1    2.0000E+00  2.8252E-01   1.7175E+00  0.000E+00  0.000E+00  0.000E+00  1.07555E+03  1.909E+00  9.636E+00  7.227E-02  1.955E+00
   1    3    6     3     2    1.7175E+00  2.4905E-01   1.4684E+00  0.000E+00  0.000E+00  0.000E+00  1.07264E+03  1.727E+00  8.909E+00  6.682E-02  1.864E+00
   1    3    7     3     3    1.4684E+00  1.9718E-01   1.2712E+00  0.000E+00  0.000E+00  0.000E+00  1.06987E+03  1.555E+00  8.218E+00  5.547E-02  1.777E+00
   1    4    8     3     4    1.2712E+00  2.2567E-01   1.0456E+00  0.000E+00  0.000E+00  0.000E+00  1.06682E+03  1.364E+00  7.455E+00  6.709E-02  1.682E+00
   1    5    8     3     5    1.0456E+00  1.5790E-01   8.8768E-01  0.000E+00  0.000E+00  0.000E+00  1.06362E+03  1.164E+00  6.655E+00  4.991E-02  1.582E+00
   1    6    8     3     6    8.8768E-01  5.5980E-02   8.3170E-01  0.000E+00  0.000E+00  0.000E+00  1.06158E+03  1.036E+00  6.145E+00  1.844E-02  1.518E+00
   1    5   10     4     1    1.0000E+01  9.0919E-02   9.9091E+00  0.000E+00  0.000E+00  0.000E+00  1.07836E+03  6.368E-01  1.000E+01  2.500E-02  1.212E+00
   1    5    9     4     2    9.9091E+00  1.8158E-01   9.7275E+00  0.000E+00  0.000E+00  0.000E+00  1.07154E+03  6.315E-01  1.000E+01  5.000E-02  1.211E+00
   1    6    8     4     3    9.7275E+00  1.2689E-01   9.6006E+00  0.000E+00  0.000E+00  0.000E+00  1.06381E+03  6.256E-01  1.000E+01  3.500E-02  1.209E+00
   1    6    8     5     1    1.0432E+01  2.2686E-01   1.0205E+01  0.000E+00  0.000E+00  0.000E+00  1.05868E+03  6.790E-01  1.542E+01  6.166E-02  1.226E+00
   1    7    7     5     2    1.0205E+01  2.7894E-01   9.9265E+00  0.000E+00  0.000E+00  0.000E+00  1.05417E+03  6.732E-01  1.519E+01  7.594E-02  1.224E+00
   1    8    7     5     3    9.9265E+00  1.9221E-01   9.7343E+00  0.000E+00  0.000E+00  0.000E+00  1.04992E+03  6.676E-01  1.497E+01  5.241E-02  1.223E+00
   1    8    6     5     4    9.7343E+00  1.3577E-01   9.5985E+00  0.000E+00  0.000E+00  0.000E+00  1.04691E+03  6.637E-01  1.482E+01  3.706E-02  1.221E+00
   1    9    6     6     1    1.2741E+01  2.2887E-01   1.2512E+01  0.000E+00  0.000E+00  0.000E+00  1.04354E+03  8.145E-01  1.200E+01  6.000E-02  1.272E+00
   1   10    7     6     2    1.2512E+01  2.2834E-01   1.2284E+01  0.000E+00  0.000E+00  0.000E+00  1.03899E+03  8.057E-01  1.200E+01  6.000E-02  1.269E+00
   1   11    7     6     3    1.2284E+01  2.2781E-01   1.2056E+01  0.000E+00  0.000E+00  0.000E+00  1.03443E+03  7.969E-01  1.200E+01  6.000E-02  1.266E+00
   1   12    7     6     4    1.2056E+01  2.2728E-01   1.1829E+01  0.000E+00  0.000E+00  0.000E+00  1.02988E+03  7.880E-01  1.200E+01  6.000E-02  1.263E+00
   1   13    7     6     5    1.1829E+01 -3.9220E-02   1.1868E+01  0.000E+00  0.000E+00  0.000E+00  1.02669E+03  7.843E-01  1.200E+01  2.400E-01 -5.447E-02
   1   14    9     7     1    1.5000E+02  1.3670E+00   1.4863E+02  0.000E+00  0.000E+00  0.000E+00  1.03987E+03  2.288E+00  5.529E+01  5.593E-01  8.147E-01
   1   13    8     7     2    1.4863E+02  1.9170E+00   1.4672E+02  0.000E+00  0.000E+00  0.000E+00  1.03478E+03  2.279E+00  5.526E+01  6.148E-01  1.039E+00
   1   13    7     7     3    1.4672E+02  1.5815E+00   1.4513E+02  0.000E+00  0.000E+00  0.000E+00  1.02969E+03  2.270E+00  5.521E+01  5.584E-01  9.440E-01
   1   13    6     8     1    1.5700E+02  9.4651E-01   1.5606E+02  0.000E+00  0.000E+00  0.000E+00  1.02474E+03  2.863E+00  4.151E+01  4.230E-01  7.458E-01
   1   13    5     8     2    1.5606E+02  2.0136E-01   1.5585E+02  0.000E+00  0.000E+00  0.000E+00  1.01848E+03  2.859E+00  4.146E+01  4.224E-01  1.589E-01
   1   13    4     8     3    1.5585E+02 -2.5399E+00   1.5839E+02  0.000E+00  0.000E+00  0.000E+00  1.01224E+03  2.867E+00  4.157E+01  4.236E+00 -1.998E-01
   1   13    3     8     4    1.5839E+02 -3.8126E+00   1.6221E+02  0.000E+00  0.000E+00  0.000E+00  1.00601E+03  2.889E+00  4.188E+01  4.268E+00 -2.978E-01
   1   13    2     8     5    1.6221E+02 -2.8384E+00   1.6505E+02  0.000E+00  0.000E+00  0.000E+00  9.99786E+02  2.911E+00  4.221E+01  4.301E+00 -2.200E-01
   1   13    1     8     6    1.6505E+02 -2.1331E+00   1.6718E+02  0.000E+00  0.000E+00  0.000E+00  9.94802E+02  2.927E+00  4.245E+01  2.595E+00 -2.740E-01
   1    8    6     9     1    3.4536E+00  0.0000E+00   3.4536E+00  0.000E+00  0.000E+00  0.000E+00  1.07993E+03  1.175E+00  4.000E+00  0.000E+00  1.392E+00
   1    8    5     9     2    3.4536E+00  0.0000E+00   3.4536E+00  0.000E+00  0.000E+00  0.000E+00  1.07943E+03  1.175E+00  4.000E+00  0.000E+00  1.392E+00



 UBDSV3 SAVING "           GW ET" ON UNIT  61 AT TIME STEP  4, STRESS PERIOD   5
 UBDSV3 SAVING "    UZF RECHARGE" ON UNIT  61 AT TIME STEP  4, STRESS PERIOD   5
 UBDSV3 SAVING " SURFACE LEAKAGE" ON UNIT  61 AT TIME STEP  4, STRESS PERIOD   5
 UBDSV3 SAVING "       HORT+DUNN" ON UNIT  61 AT TIME STEP  4, STRESS PERIOD   5
 UBDSV3 SAVING "  STORAGE CHANGE" ON UNIT  61 AT TIME STEP  4, STRESS PERIOD   5


UNSATURATED ZONE PACKAGE VOLUMETRIC BUDGET FOR  TIME STEP     4 STRESS PERIOD    5
  ------------------------------------------------------------------------------



     CUMULATIVE VOLUMES      L**3       RATES FOR THIS TIME STEP      L**3/T
     ------------------                 ------------------------

           IN:                                      IN:
           ---                                      ---
        INFILTRATION =    37153702.1624          INFILTRATION =           7.8611

          OUT:                                     OUT:
          ----                                     ----
              UZF ET =    14538503.4111                UZF ET =          16.2047
        UZF RECHARGE =       73224.0000          UZF RECHARGE =       0.0000E+00

            IN - OUT =    22541974.7512              IN - OUT =          -8.3435

          STORAGE:                                 STORAGE:
          --------                                 --------
      STORAGE CHANGE =    22541974.4301        STORAGE CHANGE =          -8.3435

 PERCENT DISCREPANCY IS DIFFERENCE BETWEEN IN-OUT MINUS CHANGE IN STORAGE
 DIVIDED BY THE AVERAGE OF IN AND OUT TIMES 100

 PERCENT DISCREPANCY =           0.00     PERCENT DISCREPANCY =           0.00






 

            AG WELLS      PERIOD    5   STEP   4
 AG WELL      1   LAYER   1   ROW     6   COL     4   RATE     0.00000    
 AG WELL      2   LAYER   1   ROW     6   COL     5   RATE     0.00000    
 AG WELL      3   LAYER   1   ROW     7   COL     4   RATE     0.00000    
 AG WELL      4   LAYER   1   ROW     7   COL     5   RATE     0.00000    
 AG WELL      5   LAYER   1   ROW     8   COL     4   RATE     0.00000    
 AG WELL      6   LAYER   1   ROW     8   COL     5   RATE     0.00000    
 
 

   DIVERSION SEGMENTS     PERIOD    5   STEP   4
 SEGMENT      9   RATE     3.45356    
 
 

        SW IRRIGATION     PERIOD    5   STEP   4
 SEGMENT      9   ROW     6   COL     4   RATE    0.575604    
 SEGMENT      9   ROW     6   COL     5   RATE    0.575604    
 SEGMENT      9   ROW     7   COL     4   RATE    0.575604    
 SEGMENT      9   ROW     7   COL     5   RATE    0.575604    
 SEGMENT      9   ROW     8   COL     4   RATE    0.575604    
 SEGMENT      9   ROW     8   COL     5   RATE    0.575604    
 
 

        GW IRRIGATION     PERIOD    5   STEP   4
 AG WELL      1   ROW     6   COL     4   RATE     0.00000    
 AG WELL      2   ROW     6   COL     5   RATE     0.00000    
 AG WELL      3   ROW     7   COL     4   RATE     0.00000    
 AG WELL      4   ROW     7   COL     5   RATE     0.00000    
 AG WELL      5   ROW     8   COL     4   RATE     0.00000    
 AG WELL      6   ROW     8   COL     5   RATE     0.00000    
 
1
  VOLUMETRIC BUDGET FOR AGRICULTURAL FIELDS AT  END OF TIME STEP    4, STRESS PERIOD   5
  ------------------------------------------------------------------------------

     CUMULATIVE VOLUMES      L**3       RATES FOR THIS TIME STEP      L**3/T
     ------------------                 ------------------------

           IN:                                      IN:
           ---                                      ---
               AG WELLS  =           0.0000                 AG WELLS  =           0.0000
      DIVERSION SEGMENTS =      759726.0625        DIVERSION SEGMENTS =           3.4536
           GW IRRIGATION =           0.0000             GW IRRIGATION =           0.0000
           SW IRRIGATION =           0.0000             SW IRRIGATION =           0.0000
        SYSTEM LOSSES GW =           0.0000          SYSTEM LOSSES GW =           0.0000
        SYSTEM LOSSES SW =           0.0000          SYSTEM LOSSES SW =           0.0000

                TOTAL IN =      759726.0625                  TOTAL IN =           3.4536

          OUT:                                     OUT:
          ----                                     ----
               AG WELLS  =           0.0000                 AG WELLS  =           0.0000
      DIVERSION SEGMENTS =           0.0000        DIVERSION SEGMENTS =           0.0000
           GW IRRIGATION =           0.0000             GW IRRIGATION =           0.0000
           SW IRRIGATION =      759741.1875             SW IRRIGATION =           3.4536
        SYSTEM LOSSES GW =           0.0000          SYSTEM LOSSES GW =           0.0000
        SYSTEM LOSSES SW =           0.0000          SYSTEM LOSSES SW =           0.0000

               TOTAL OUT =      759741.1875                 TOTAL OUT =           3.4536

                IN - OUT =         -15.1250                  IN - OUT =      -6.8903E-05

     PERCENT DISCREPANCY =          -0.00         PERCENT DISCREPANCY =          -0.00



1
  VOLUMETRIC BUDGET FOR ENTIRE MODEL AT END OF TIME STEP    4, STRESS PERIOD   5
  ------------------------------------------------------------------------------

     CUMULATIVE VOLUMES      L**3       RATES FOR THIS TIME STEP      L**3/T
     ------------------                 ------------------------

           IN:                                      IN:
           ---                                      ---
             STORAGE     =     4868579.5000               STORAGE     =           1.6056
       CONSTANT HEAD     =           0.0000         CONSTANT HEAD     =           0.0000
     HEAD DEP BOUNDS     =     2396733.7500       HEAD DEP BOUNDS     =           0.2879
      STREAM LEAKAGE     =    97403080.0000        STREAM LEAKAGE     =          11.2312
        UZF RECHARGE     =       73223.9531          UZF RECHARGE     =           0.0000
               GW ET     =           0.0000                 GW ET     =           0.0000
     SURFACE LEAKAGE     =           0.0000       SURFACE LEAKAGE     =           0.0000
           AG WELLS      =           0.0000             AG WELLS      =           0.0000

                TOTAL IN =   104741616.0000                  TOTAL IN =          13.1247

          OUT:                                     OUT:
          ----                                     ----
             STORAGE     =    18077714.0000               STORAGE     =           1.4700
       CONSTANT HEAD     =           0.0000         CONSTANT HEAD     =           0.0000
     HEAD DEP BOUNDS     =     2399355.7500       HEAD DEP BOUNDS     =           0.2897
      STREAM LEAKAGE     =    84267896.0000        STREAM LEAKAGE     =          11.3632
        UZF RECHARGE     =           0.0000          UZF RECHARGE     =           0.0000
               GW ET     =           0.0000                 GW ET     =           0.0000
     SURFACE LEAKAGE     =           0.0000       SURFACE LEAKAGE     =           0.0000
           AG WELLS      =           0.0000             AG WELLS      =           0.0000

               TOTAL OUT =   104744968.0000                 TOTAL OUT =          13.1229

                IN - OUT =       -3352.0000                  IN - OUT =       1.7729E-03

     PERCENT DISCREPANCY =          -0.00         PERCENT DISCREPANCY =           0.01






         TIME SUMMARY AT END OF TIME STEP    4 IN STRESS PERIOD    5
                    SECONDS     MINUTES      HOURS       DAYS        YEARS
                    -----------------------------------------------------------
   TIME STEP LENGTH  87667.      1461.1      24.352      1.0147     2.77799E-03
 STRESS PERIOD TIME 3.50667E+05  5844.4      97.407      4.0586     1.11120E-02
         TOTAL TIME 8.32706E+06 1.38784E+05  2313.1      96.378     0.26387    
1
 
 SOLVING FOR HEAD 
                                                   Max.-Head-Change                         Max.-Flux-Residual
  Residual-Control   Outer-Iter.   Inner-Iter.     Column Row Layer    Maximum-Head-Change  Column Row Layer    Maximum-Flux-Residual          L2-NORM 
          0                 1           2             2   13     1      -0.4141875091E-02       2   13    1        -0.2326426377E+00      0.4868351763E+00
          0                 2           2             4   13     1      -0.2960446613E-03       4   13    1        -0.1692718085E-01      0.4172176598E-01
          0                 3           2             4   13     1      -0.3224650444E-03       4   13    1        -0.1844543404E-01      0.3270045586E-01
          0                 4           2             4   13     1      -0.1413017392E-03       4   13    1        -0.8081667599E-02      0.1441141876E-01
          0                 5           1             4   13     1      -0.7275470235E-04       4   13    1        -0.4161076866E-02      0.7411184725E-02

    ------------------------------------------------
       NWT REQUIRED            5 OUTER ITERATIONS 
       AND A TOTAL OF          9 INNER ITERATIONS.
    ------------------------------------------------

 NO OUTPUT CONTROL FOR STRESS PERIOD    5   TIME STEP    5
 
 SOLVING FOR HEAD 
                                                   Max.-Head-Change                         Max.-Flux-Residual
  Residual-Control   Outer-Iter.   Inner-Iter.     Column Row Layer    Maximum-Head-Change  Column Row Layer    Maximum-Flux-Residual          L2-NORM 
          0                 1           2             2   13     1      -0.3751813082E-02       2   13    1        -0.2107040652E+00      0.4519463864E+00
          0                 2           2             4   13     1      -0.3477867808E-03       4   13    1        -0.1990215026E-01      0.4464870117E-01
          0                 3           2             4   13     1      -0.3149860820E-03       4   13    1        -0.1801624150E-01      0.3204640424E-01
          0                 4           2             4   13     1      -0.1414632919E-03       4   13    1        -0.8091057546E-02      0.1441099993E-01
          0                 5           1             4   13     1      -0.7251779817E-04       4   13    1        -0.4147517527E-02      0.7387309899E-02

    ------------------------------------------------
       NWT REQUIRED            5 OUTER ITERATIONS 
       AND A TOTAL OF          9 INNER ITERATIONS.
    ------------------------------------------------

 OUTPUT CONTROL FOR STRESS PERIOD    5   TIME STEP    6
    PRINT BUDGET
    SAVE BUDGET
 UBDSV1 SAVING "         STORAGE" ON UNIT 102 AT TIME STEP  6, STRESS PERIOD   5
 UBDSV2 SAVING "   CONSTANT HEAD" ON UNIT 102 AT TIME STEP  6, STRESS PERIOD   5
 UBDSV1 SAVING "FLOW RIGHT FACE " ON UNIT 102 AT TIME STEP  6, STRESS PERIOD   5
 UBDSV1 SAVING "FLOW FRONT FACE " ON UNIT 102 AT TIME STEP  6, STRESS PERIOD   5

  HEAD DEP BOUNDS   PERIOD    5   STEP     6
 BOUNDARY      1   LAYER   1   ROW    13   COL     1   RATE   -0.289510    
 BOUNDARY      2   LAYER   1   ROW    14   COL     9   RATE    0.287886    



 STREAM LISTING     PERIOD      5   STEP        6

 LAYER ROW COL. STREAM  RCH.  FLOW INTO     FLOW TO   FLOW OUT OF   OVRLND.     DIRECT     STREAM       STREAM     STREAM     STREAM   STREAMBED  STREAMBED
                SEG.NO.  NO.  STRM. RCH.    AQUIFER    STRM. RCH.    RUNOFF     PRECIP       ET          HEAD       DEPTH      WIDTH   CONDCTNC.   GRADIENT

   1    1    1     1     1    1.0500E+01  1.5271E-01   1.0347E+01  0.000E+00  0.000E+00  0.000E+00  1.09396E+03  9.109E-01  8.677E+00  3.905E-02  1.304E+00
   1    2    2     1     2    1.0347E+01  2.3505E-01   1.0112E+01  0.000E+00  0.000E+00  0.000E+00  1.08896E+03  9.059E-01  8.597E+00  6.018E-02  1.302E+00
   1    3    3     1     3    1.0112E+01  1.9904E-01   9.9132E+00  0.000E+00  0.000E+00  0.000E+00  1.08332E+03  9.003E-01  8.505E+00  5.103E-02  1.300E+00
   1    3    4     1     4    9.9132E+00  1.8195E-01   9.7313E+00  0.000E+00  0.000E+00  0.000E+00  1.07830E+03  8.947E-01  8.417E+00  4.672E-02  1.298E+00
   1    4    5     2     1    7.7313E+00  2.8007E-01   7.4512E+00  0.000E+00  0.000E+00  0.000E+00  1.07252E+03  5.907E-01  1.200E+01  7.800E-02  1.197E+00
   1    5    6     2     2    7.4512E+00  2.1474E-01   7.2365E+00  0.000E+00  0.000E+00  0.000E+00  1.06709E+03  5.790E-01  1.200E+01  6.000E-02  1.193E+00
   1    6    6     2     3    7.2365E+00  2.1413E-01   7.0224E+00  0.000E+00  0.000E+00  0.000E+00  1.06236E+03  5.688E-01  1.200E+01  6.000E-02  1.190E+00
   1    7    6     2     4    7.0224E+00  2.1351E-01   6.8088E+00  0.000E+00  0.000E+00  0.000E+00  1.05763E+03  5.585E-01  1.200E+01  6.000E-02  1.186E+00
   1    8    6     2     5    6.8088E+00  2.1289E-01   6.5960E+00  0.000E+00  0.000E+00  0.000E+00  1.05291E+03  5.481E-01  1.200E+01  6.000E-02  1.183E+00
   1    3    5     3     1    2.0000E+00  2.8252E-01   1.7175E+00  0.000E+00  0.000E+00  0.000E+00  1.07555E+03  1.909E+00  9.636E+00  7.227E-02  1.955E+00
   1    3    6     3     2    1.7175E+00  2.4905E-01   1.4684E+00  0.000E+00  0.000E+00  0.000E+00  1.07264E+03  1.727E+00  8.909E+00  6.682E-02  1.864E+00
   1    3    7     3     3    1.4684E+00  1.9718E-01   1.2712E+00  0.000E+00  0.000E+00  0.000E+00  1.06987E+03  1.555E+00  8.218E+00  5.547E-02  1.777E+00
   1    4    8     3     4    1.2712E+00  2.2567E-01   1.0456E+00  0.000E+00  0.000E+00  0.000E+00  1.06682E+03  1.364E+00  7.455E+00  6.709E-02  1.682E+00
   1    5    8     3     5    1.0456E+00  1.5790E-01   8.8768E-01  0.000E+00  0.000E+00  0.000E+00  1.06362E+03  1.164E+00  6.655E+00  4.991E-02  1.582E+00
   1    6    8     3     6    8.8768E-01  5.5980E-02   8.3170E-01  0.000E+00  0.000E+00  0.000E+00  1.06158E+03  1.036E+00  6.145E+00  1.844E-02  1.518E+00
   1    5   10     4     1    1.0000E+01  9.0919E-02   9.9091E+00  0.000E+00  0.000E+00  0.000E+00  1.07836E+03  6.368E-01  1.000E+01  2.500E-02  1.212E+00
   1    5    9     4     2    9.9091E+00  1.8158E-01   9.7275E+00  0.000E+00  0.000E+00  0.000E+00  1.07154E+03  6.315E-01  1.000E+01  5.000E-02  1.211E+00
   1    6    8     4     3    9.7275E+00  1.2689E-01   9.6006E+00  0.000E+00  0.000E+00  0.000E+00  1.06381E+03  6.256E-01  1.000E+01  3.500E-02  1.209E+00
   1    6    8     5     1    1.0432E+01  2.2686E-01   1.0205E+01  0.000E+00  0.000E+00  0.000E+00  1.05868E+03  6.790E-01  1.542E+01  6.166E-02  1.226E+00
   1    7    7     5     2    1.0205E+01  2.7894E-01   9.9265E+00  0.000E+00  0.000E+00  0.000E+00  1.05417E+03  6.732E-01  1.519E+01  7.594E-02  1.224E+00
   1    8    7     5     3    9.9265E+00  1.9221E-01   9.7343E+00  0.000E+00  0.000E+00  0.000E+00  1.04992E+03  6.676E-01  1.497E+01  5.241E-02  1.223E+00
   1    8    6     5     4    9.7343E+00  1.3577E-01   9.5985E+00  0.000E+00  0.000E+00  0.000E+00  1.04691E+03  6.637E-01  1.482E+01  3.706E-02  1.221E+00
   1    9    6     6     1    1.2731E+01  2.2885E-01   1.2502E+01  0.000E+00  0.000E+00  0.000E+00  1.04354E+03  8.142E-01  1.200E+01  6.000E-02  1.271E+00
   1   10    7     6     2    1.2502E+01  2.2832E-01   1.2274E+01  0.000E+00  0.000E+00  0.000E+00  1.03899E+03  8.054E-01  1.200E+01  6.000E-02  1.268E+00
   1   11    7     6     3    1.2274E+01  2.2779E-01   1.2046E+01  0.000E+00  0.000E+00  0.000E+00  1.03443E+03  7.965E-01  1.200E+01  6.000E-02  1.266E+00
   1   12    7     6     4    1.2046E+01  2.2726E-01   1.1819E+01  0.000E+00  0.000E+00  0.000E+00  1.02988E+03  7.876E-01  1.200E+01  6.000E-02  1.263E+00
   1   13    7     6     5    1.1819E+01 -3.9093E-02   1.1858E+01  0.000E+00  0.000E+00  0.000E+00  1.02669E+03  7.839E-01  1.200E+01  2.400E-01 -5.430E-02
   1   14    9     7     1    1.5000E+02  1.3671E+00   1.4863E+02  0.000E+00  0.000E+00  0.000E+00  1.03987E+03  2.288E+00  5.529E+01  5.593E-01  8.148E-01
   1   13    8     7     2    1.4863E+02  1.9169E+00   1.4672E+02  0.000E+00  0.000E+00  0.000E+00  1.03478E+03  2.279E+00  5.526E+01  6.148E-01  1.039E+00
   1   13    7     7     3    1.4672E+02  1.5820E+00   1.4513E+02  0.000E+00  0.000E+00  0.000E+00  1.02969E+03  2.270E+00  5.521E+01  5.584E-01  9.443E-01
   1   13    6     8     1    1.5699E+02  9.4721E-01   1.5604E+02  0.000E+00  0.000E+00  0.000E+00  1.02474E+03  2.863E+00  4.151E+01  4.230E-01  7.464E-01
   1   13    5     8     2    1.5604E+02  2.0191E-01   1.5584E+02  0.000E+00  0.000E+00  0.000E+00  1.01848E+03  2.859E+00  4.145E+01  4.224E-01  1.593E-01
   1   13    4     8     3    1.5584E+02 -2.5015E+00   1.5834E+02  0.000E+00  0.000E+00  0.000E+00  1.01224E+03  2.867E+00  4.157E+01  4.236E+00 -1.968E-01
   1   13    3     8     4    1.5834E+02 -3.7775E+00   1.6212E+02  0.000E+00  0.000E+00  0.000E+00  1.00601E+03  2.888E+00  4.188E+01  4.268E+00 -2.951E-01
   1   13    2     8     5    1.6212E+02 -2.8000E+00   1.6492E+02  0.000E+00  0.000E+00  0.000E+00  9.99785E+02  2.910E+00  4.220E+01  4.300E+00 -2.170E-01
   1   13    1     8     6    1.6492E+02 -2.1201E+00   1.6704E+02  0.000E+00  0.000E+00  0.000E+00  9.94802E+02  2.927E+00  4.243E+01  2.595E+00 -2.724E-01
   1    8    6     9     1    3.4635E+00  0.0000E+00   3.4635E+00  0.000E+00  0.000E+00  0.000E+00  1.07993E+03  1.177E+00  4.000E+00  0.000E+00  1.392E+00
   1    8    5     9     2    3.4635E+00  0.0000E+00   3.4635E+00  0.000E+00  0.000E+00  0.000E+00  1.07943E+03  1.177E+00  4.000E+00  0.000E+00  1.392E+00



 UBDSV3 SAVING "           GW ET" ON UNIT  61 AT TIME STEP  6, STRESS PERIOD   5
 UBDSV3 SAVING "    UZF RECHARGE" ON UNIT  61 AT TIME STEP  6, STRESS PERIOD   5
 UBDSV3 SAVING " SURFACE LEAKAGE" ON UNIT  61 AT TIME STEP  6, STRESS PERIOD   5
 UBDSV3 SAVING "       HORT+DUNN" ON UNIT  61 AT TIME STEP  6, STRESS PERIOD   5
 UBDSV3 SAVING "  STORAGE CHANGE" ON UNIT  61 AT TIME STEP  6, STRESS PERIOD   5


UNSATURATED ZONE PACKAGE VOLUMETRIC BUDGET FOR  TIME STEP     6 STRESS PERIOD    5
  ------------------------------------------------------------------------------



     CUMULATIVE VOLUMES      L**3       RATES FOR THIS TIME STEP      L**3/T
     ------------------                 ------------------------

           IN:                                      IN:
           ---                                      ---
        INFILTRATION =    38534217.8401          INFILTRATION =           7.8711

          OUT:                                     OUT:
          ----                                     ----
              UZF ET =    17376968.5029                UZF ET =          16.1863
        UZF RECHARGE =       73224.0000          UZF RECHARGE =       0.0000E+00

            IN - OUT =    21084025.3372              IN - OUT =          -8.3152

          STORAGE:                                 STORAGE:
          --------                                 --------
      STORAGE CHANGE =    21084025.0154        STORAGE CHANGE =          -8.3152

 PERCENT DISCREPANCY IS DIFFERENCE BETWEEN IN-OUT MINUS CHANGE IN STORAGE
 DIVIDED BY THE AVERAGE OF IN AND OUT TIMES 100

 PERCENT DISCREPANCY =           0.00     PERCENT DISCREPANCY =           0.00






 

            AG WELLS      PERIOD    5   STEP   6
 AG WELL      1   LAYER   1   ROW     6   COL     4   RATE     0.00000    
 AG WELL      2   LAYER   1   ROW     6   COL     5   RATE     0.00000    
 AG WELL      3   LAYER   1   ROW     7   COL     4   RATE     0.00000    
 AG WELL      4   LAYER   1   ROW     7   COL     5   RATE     0.00000    
 AG WELL      5   LAYER   1   ROW     8   COL     4   RATE     0.00000    
 AG WELL      6   LAYER   1   ROW     8   COL     5   RATE     0.00000    
 
 

   DIVERSION SEGMENTS     PERIOD    5   STEP   6
 SEGMENT      9   RATE     3.46350    
 
 

        SW IRRIGATION     PERIOD    5   STEP   6
 SEGMENT      9   ROW     6   COL     4   RATE    0.577262    
 SEGMENT      9   ROW     6   COL     5   RATE    0.577262    
 SEGMENT      9   ROW     7   COL     4   RATE    0.577262    
 SEGMENT      9   ROW     7   COL     5   RATE    0.577262    
 SEGMENT      9   ROW     8   COL     4   RATE    0.577262    
 SEGMENT      9   ROW     8   COL     5   RATE    0.577262    
 
 

        GW IRRIGATION     PERIOD    5   STEP   6
 AG WELL      1   ROW     6   COL     4   RATE     0.00000    
 AG WELL      2   ROW     6   COL     5   RATE     0.00000    
 AG WELL      3   ROW     7   COL     4   RATE     0.00000    
 AG WELL      4   ROW     7   COL     5   RATE     0.00000    
 AG WELL      5   ROW     8   COL     4   RATE     0.00000    
 AG WELL      6   ROW     8   COL     5   RATE     0.00000    
 
1
  VOLUMETRIC BUDGET FOR AGRICULTURAL FIELDS AT  END OF TIME STEP    6, STRESS PERIOD   5
  ------------------------------------------------------------------------------

     CUMULATIVE VOLUMES      L**3       RATES FOR THIS TIME STEP      L**3/T
     ------------------                 ------------------------

           IN:                                      IN:
           ---                                      ---
               AG WELLS  =           0.0000                 AG WELLS  =           0.0000
      DIVERSION SEGMENTS =     1367448.0000        DIVERSION SEGMENTS =           3.4635
           GW IRRIGATION =           0.0000             GW IRRIGATION =           0.0000
           SW IRRIGATION =           0.0000             SW IRRIGATION =           0.0000
        SYSTEM LOSSES GW =           0.0000          SYSTEM LOSSES GW =           0.0000
        SYSTEM LOSSES SW =           0.0000          SYSTEM LOSSES SW =           0.0000

                TOTAL IN =     1367448.0000                  TOTAL IN =           3.4635

          OUT:                                     OUT:
          ----                                     ----
               AG WELLS  =           0.0000                 AG WELLS  =           0.0000
      DIVERSION SEGMENTS =           0.0000        DIVERSION SEGMENTS =           0.0000
           GW IRRIGATION =           0.0000             GW IRRIGATION =           0.0000
           SW IRRIGATION =     1367475.1250             SW IRRIGATION =           3.4636
        SYSTEM LOSSES GW =           0.0000          SYSTEM LOSSES GW =           0.0000
        SYSTEM LOSSES SW =           0.0000          SYSTEM LOSSES SW =           0.0000

               TOTAL OUT =     1367475.1250                 TOTAL OUT =           3.4636

                IN - OUT =         -27.1250                  IN - OUT =      -6.9141E-05

     PERCENT DISCREPANCY =          -0.00         PERCENT DISCREPANCY =          -0.00



1
  VOLUMETRIC BUDGET FOR ENTIRE MODEL AT END OF TIME STEP    6, STRESS PERIOD   5
  ------------------------------------------------------------------------------

     CUMULATIVE VOLUMES      L**3       RATES FOR THIS TIME STEP      L**3/T
     ------------------                 ------------------------

           IN:                                      IN:
           ---                                      ---
             STORAGE     =     5130206.0000               STORAGE     =           1.4556
       CONSTANT HEAD     =           0.0000         CONSTANT HEAD     =           0.0000
     HEAD DEP BOUNDS     =     2447209.7500       HEAD DEP BOUNDS     =           0.2879
      STREAM LEAKAGE     =    99372480.0000        STREAM LEAKAGE     =          11.2328
        UZF RECHARGE     =       73223.9531          UZF RECHARGE     =           0.0000
               GW ET     =           0.0000                 GW ET     =           0.0000
     SURFACE LEAKAGE     =           0.0000       SURFACE LEAKAGE     =           0.0000
           AG WELLS      =           0.0000             AG WELLS      =           0.0000

                TOTAL IN =   107023120.0000                  TOTAL IN =          12.9763

          OUT:                                     OUT:
          ----                                     ----
             STORAGE     =    18332376.0000               STORAGE     =           1.4469
       CONSTANT HEAD     =           0.0000         CONSTANT HEAD     =           0.0000
     HEAD DEP BOUNDS     =     2450125.5000       HEAD DEP BOUNDS     =           0.2895
      STREAM LEAKAGE     =    86243648.0000        STREAM LEAKAGE     =          11.2382
        UZF RECHARGE     =           0.0000          UZF RECHARGE     =           0.0000
               GW ET     =           0.0000                 GW ET     =           0.0000
     SURFACE LEAKAGE     =           0.0000       SURFACE LEAKAGE     =           0.0000
           AG WELLS      =           0.0000             AG WELLS      =           0.0000

               TOTAL OUT =   107026152.0000                 TOTAL OUT =          12.9745

                IN - OUT =       -3032.0000                  IN - OUT =       1.7843E-03

     PERCENT DISCREPANCY =          -0.00         PERCENT DISCREPANCY =           0.01






         TIME SUMMARY AT END OF TIME STEP    6 IN STRESS PERIOD    5
                    SECONDS     MINUTES      HOURS       DAYS        YEARS
                    -----------------------------------------------------------
   TIME STEP LENGTH  87667.      1461.1      24.352      1.0147     2.77799E-03
 STRESS PERIOD TIME 5.26000E+05  8766.7      146.11      6.0880     1.66679E-02
         TOTAL TIME 8.50239E+06 1.41707E+05  2361.8      98.407     0.26942    
1
 
 SOLVING FOR HEAD 
                                                   Max.-Head-Change                         Max.-Flux-Residual
  Residual-Control   Outer-Iter.   Inner-Iter.     Column Row Layer    Maximum-Head-Change  Column Row Layer    Maximum-Flux-Residual          L2-NORM 
          0                 1           2             2   13     1      -0.3390468019E-02       2   13    1        -0.1903823597E+00      0.4210030677E+00
          0                 2           2             4   13     1      -0.3937442788E-03       4   13    1        -0.2254390925E-01      0.4747494097E-01
          0                 3           2             4   13     1      -0.3095872490E-03       4   13    1        -0.1770625844E-01      0.3159040189E-01
          0                 4           2             4   13     1      -0.1436815551E-03       4   13    1        -0.8218065032E-02      0.1462085514E-01
          0                 5           1             4   13     1      -0.7290734512E-04       4   13    1        -0.4169766524E-02      0.7427393944E-02

    ------------------------------------------------
       NWT REQUIRED            5 OUTER ITERATIONS 
       AND A TOTAL OF          9 INNER ITERATIONS.
    ------------------------------------------------

 OUTPUT CONTROL FOR STRESS PERIOD    5   TIME STEP    7
    PRINT BUDGET
    SAVE BUDGET
 UBDSV1 SAVING "         STORAGE" ON UNIT 102 AT TIME STEP  7, STRESS PERIOD   5
 UBDSV2 SAVING "   CONSTANT HEAD" ON UNIT 102 AT TIME STEP  7, STRESS PERIOD   5
 UBDSV1 SAVING "FLOW RIGHT FACE " ON UNIT 102 AT TIME STEP  7, STRESS PERIOD   5
 UBDSV1 SAVING "FLOW FRONT FACE " ON UNIT 102 AT TIME STEP  7, STRESS PERIOD   5

  HEAD DEP BOUNDS   PERIOD    5   STEP     7
 BOUNDARY      1   LAYER   1   ROW    13   COL     1   RATE   -0.289409    
 BOUNDARY      2   LAYER   1   ROW    14   COL     9   RATE    0.287887    



 STREAM LISTING     PERIOD      5   STEP        7

 LAYER ROW COL. STREAM  RCH.  FLOW INTO     FLOW TO   FLOW OUT OF   OVRLND.     DIRECT     STREAM       STREAM     STREAM     STREAM   STREAMBED  STREAMBED
                SEG.NO.  NO.  STRM. RCH.    AQUIFER    STRM. RCH.    RUNOFF     PRECIP       ET          HEAD       DEPTH      WIDTH   CONDCTNC.   GRADIENT

   1    1    1     1     1    1.0500E+01  1.5271E-01   1.0347E+01  0.000E+00  0.000E+00  0.000E+00  1.09396E+03  9.109E-01  8.677E+00  3.905E-02  1.304E+00
   1    2    2     1     2    1.0347E+01  2.3505E-01   1.0112E+01  0.000E+00  0.000E+00  0.000E+00  1.08896E+03  9.059E-01  8.597E+00  6.018E-02  1.302E+00
   1    3    3     1     3    1.0112E+01  1.9904E-01   9.9132E+00  0.000E+00  0.000E+00  0.000E+00  1.08332E+03  9.003E-01  8.505E+00  5.103E-02  1.300E+00
   1    3    4     1     4    9.9132E+00  1.8195E-01   9.7313E+00  0.000E+00  0.000E+00  0.000E+00  1.07830E+03  8.947E-01  8.417E+00  4.672E-02  1.298E+00
   1    4    5     2     1    7.7313E+00  2.8007E-01   7.4512E+00  0.000E+00  0.000E+00  0.000E+00  1.07252E+03  5.907E-01  1.200E+01  7.800E-02  1.197E+00
   1    5    6     2     2    7.4512E+00  2.1474E-01   7.2365E+00  0.000E+00  0.000E+00  0.000E+00  1.06709E+03  5.790E-01  1.200E+01  6.000E-02  1.193E+00
   1    6    6     2     3    7.2365E+00  2.1413E-01   7.0224E+00  0.000E+00  0.000E+00  0.000E+00  1.06236E+03  5.688E-01  1.200E+01  6.000E-02  1.190E+00
   1    7    6     2     4    7.0224E+00  2.1351E-01   6.8088E+00  0.000E+00  0.000E+00  0.000E+00  1.05763E+03  5.585E-01  1.200E+01  6.000E-02  1.186E+00
   1    8    6     2     5    6.8088E+00  2.1289E-01   6.5960E+00  0.000E+00  0.000E+00  0.000E+00  1.05291E+03  5.481E-01  1.200E+01  6.000E-02  1.183E+00
   1    3    5     3     1    2.0000E+00  2.8252E-01   1.7175E+00  0.000E+00  0.000E+00  0.000E+00  1.07555E+03  1.909E+00  9.636E+00  7.227E-02  1.955E+00
   1    3    6     3     2    1.7175E+00  2.4905E-01   1.4684E+00  0.000E+00  0.000E+00  0.000E+00  1.07264E+03  1.727E+00  8.909E+00  6.682E-02  1.864E+00
   1    3    7     3     3    1.4684E+00  1.9718E-01   1.2712E+00  0.000E+00  0.000E+00  0.000E+00  1.06987E+03  1.555E+00  8.218E+00  5.547E-02  1.777E+00
   1    4    8     3     4    1.2712E+00  2.2567E-01   1.0456E+00  0.000E+00  0.000E+00  0.000E+00  1.06682E+03  1.364E+00  7.455E+00  6.709E-02  1.682E+00
   1    5    8     3     5    1.0456E+00  1.5790E-01   8.8768E-01  0.000E+00  0.000E+00  0.000E+00  1.06362E+03  1.164E+00  6.655E+00  4.991E-02  1.582E+00
   1    6    8     3     6    8.8768E-01  5.5980E-02   8.3170E-01  0.000E+00  0.000E+00  0.000E+00  1.06158E+03  1.036E+00  6.145E+00  1.844E-02  1.518E+00
   1    5   10     4     1    1.0000E+01  9.0919E-02   9.9091E+00  0.000E+00  0.000E+00  0.000E+00  1.07836E+03  6.368E-01  1.000E+01  2.500E-02  1.212E+00
   1    5    9     4     2    9.9091E+00  1.8158E-01   9.7275E+00  0.000E+00  0.000E+00  0.000E+00  1.07154E+03  6.315E-01  1.000E+01  5.000E-02  1.211E+00
   1    6    8     4     3    9.7275E+00  1.2689E-01   9.6006E+00  0.000E+00  0.000E+00  0.000E+00  1.06381E+03  6.256E-01  1.000E+01  3.500E-02  1.209E+00
   1    6    8     5     1    1.0432E+01  2.2686E-01   1.0205E+01  0.000E+00  0.000E+00  0.000E+00  1.05868E+03  6.790E-01  1.542E+01  6.166E-02  1.226E+00
   1    7    7     5     2    1.0205E+01  2.7894E-01   9.9265E+00  0.000E+00  0.000E+00  0.000E+00  1.05417E+03  6.732E-01  1.519E+01  7.594E-02  1.224E+00
   1    8    7     5     3    9.9265E+00  1.9221E-01   9.7343E+00  0.000E+00  0.000E+00  0.000E+00  1.04992E+03  6.676E-01  1.497E+01  5.241E-02  1.223E+00
   1    8    6     5     4    9.7343E+00  1.3577E-01   9.5985E+00  0.000E+00  0.000E+00  0.000E+00  1.04691E+03  6.637E-01  1.482E+01  3.706E-02  1.221E+00
   1    9    6     6     1    1.2721E+01  2.2884E-01   1.2492E+01  0.000E+00  0.000E+00  0.000E+00  1.04354E+03  8.140E-01  1.200E+01  6.000E-02  1.271E+00
   1   10    7     6     2    1.2492E+01  2.2831E-01   1.2264E+01  0.000E+00  0.000E+00  0.000E+00  1.03899E+03  8.052E-01  1.200E+01  6.000E-02  1.268E+00
   1   11    7     6     3    1.2264E+01  2.2778E-01   1.2036E+01  0.000E+00  0.000E+00  0.000E+00  1.03443E+03  7.963E-01  1.200E+01  6.000E-02  1.265E+00
   1   12    7     6     4    1.2036E+01  2.2725E-01   1.1809E+01  0.000E+00  0.000E+00  0.000E+00  1.02988E+03  7.874E-01  1.200E+01  6.000E-02  1.262E+00
   1   13    7     6     5    1.1809E+01 -3.9034E-02   1.1848E+01  0.000E+00  0.000E+00  0.000E+00  1.02669E+03  7.837E-01  1.200E+01  2.400E-01 -5.421E-02
   1   14    9     7     1    1.5000E+02  1.3671E+00   1.4863E+02  0.000E+00  0.000E+00  0.000E+00  1.03987E+03  2.288E+00  5.529E+01  5.593E-01  8.148E-01
   1   13    8     7     2    1.4863E+02  1.9168E+00   1.4672E+02  0.000E+00  0.000E+00  0.000E+00  1.03478E+03  2.279E+00  5.526E+01  6.148E-01  1.039E+00
   1   13    7     7     3    1.4672E+02  1.5822E+00   1.4513E+02  0.000E+00  0.000E+00  0.000E+00  1.02969E+03  2.270E+00  5.521E+01  5.584E-01  9.445E-01
   1   13    6     8     1    1.5698E+02  9.4755E-01   1.5603E+02  0.000E+00  0.000E+00  0.000E+00  1.02474E+03  2.863E+00  4.151E+01  4.230E-01  7.467E-01
   1   13    5     8     2    1.5603E+02  2.0220E-01   1.5583E+02  0.000E+00  0.000E+00  0.000E+00  1.01848E+03  2.859E+00  4.145E+01  4.224E-01  1.596E-01
   1   13    4     8     3    1.5583E+02 -2.4850E+00   1.5832E+02  0.000E+00  0.000E+00  0.000E+00  1.01224E+03  2.867E+00  4.157E+01  4.236E+00 -1.956E-01
   1   13    3     8     4    1.5832E+02 -3.7619E+00   1.6208E+02  0.000E+00  0.000E+00  0.000E+00  1.00601E+03  2.888E+00  4.188E+01  4.267E+00 -2.939E-01
   1   13    2     8     5    1.6208E+02 -2.7828E+00   1.6486E+02  0.000E+00  0.000E+00  0.000E+00  9.99785E+02  2.910E+00  4.219E+01  4.300E+00 -2.157E-01
   1   13    1     8     6    1.6486E+02 -2.1139E+00   1.6698E+02  0.000E+00  0.000E+00  0.000E+00  9.94801E+02  2.926E+00  4.243E+01  2.594E+00 -2.716E-01
   1    8    6     9     1    3.4737E+00  0.0000E+00   3.4737E+00  0.000E+00  0.000E+00  0.000E+00  1.07993E+03  1.178E+00  4.000E+00  0.000E+00  1.393E+00
   1    8    5     9     2    3.4737E+00  0.0000E+00   3.4737E+00  0.000E+00  0.000E+00  0.000E+00  1.07943E+03  1.178E+00  4.000E+00  0.000E+00  1.393E+00



 UBDSV3 SAVING "           GW ET" ON UNIT  61 AT TIME STEP  7, STRESS PERIOD   5
 UBDSV3 SAVING "    UZF RECHARGE" ON UNIT  61 AT TIME STEP  7, STRESS PERIOD   5
 UBDSV3 SAVING " SURFACE LEAKAGE" ON UNIT  61 AT TIME STEP  7, STRESS PERIOD   5
 UBDSV3 SAVING "       HORT+DUNN" ON UNIT  61 AT TIME STEP  7, STRESS PERIOD   5
 UBDSV3 SAVING "  STORAGE CHANGE" ON UNIT  61 AT TIME STEP  7, STRESS PERIOD   5


UNSATURATED ZONE PACKAGE VOLUMETRIC BUDGET FOR  TIME STEP     7 STRESS PERIOD    5
  ------------------------------------------------------------------------------



     CUMULATIVE VOLUMES      L**3       RATES FOR THIS TIME STEP      L**3/T
     ------------------                 ------------------------

           IN:                                      IN:
           ---                                      ---
        INFILTRATION =    39225141.7961          INFILTRATION =           7.8813

          OUT:                                     OUT:
          ----                                     ----
              UZF ET =    18788241.5156                UZF ET =          16.0982
        UZF RECHARGE =       73224.0000          UZF RECHARGE =       0.0000E+00

            IN - OUT =    20363676.2805              IN - OUT =          -8.2169

          STORAGE:                                 STORAGE:
          --------                                 --------
      STORAGE CHANGE =    20363675.9529        STORAGE CHANGE =          -8.2169

 PERCENT DISCREPANCY IS DIFFERENCE BETWEEN IN-OUT MINUS CHANGE IN STORAGE
 DIVIDED BY THE AVERAGE OF IN AND OUT TIMES 100

 PERCENT DISCREPANCY =           0.00     PERCENT DISCREPANCY =           0.00






 

            AG WELLS      PERIOD    5   STEP   7
 AG WELL      1   LAYER   1   ROW     6   COL     4   RATE     0.00000    
 AG WELL      2   LAYER   1   ROW     6   COL     5   RATE     0.00000    
 AG WELL      3   LAYER   1   ROW     7   COL     4   RATE     0.00000    
 AG WELL      4   LAYER   1   ROW     7   COL     5   RATE     0.00000    
 AG WELL      5   LAYER   1   ROW     8   COL     4   RATE     0.00000    
 AG WELL      6   LAYER   1   ROW     8   COL     5   RATE     0.00000    
 
 

   DIVERSION SEGMENTS     PERIOD    5   STEP   7
 SEGMENT      9   RATE     3.47369    
 
 

        SW IRRIGATION     PERIOD    5   STEP   7
 SEGMENT      9   ROW     6   COL     4   RATE    0.578960    
 SEGMENT      9   ROW     6   COL     5   RATE    0.578960    
 SEGMENT      9   ROW     7   COL     4   RATE    0.578960    
 SEGMENT      9   ROW     7   COL     5   RATE    0.578960    
 SEGMENT      9   ROW     8   COL     4   RATE    0.578960    
 SEGMENT      9   ROW     8   COL     5   RATE    0.578960    
 
 

        GW IRRIGATION     PERIOD    5   STEP   7
 AG WELL      1   ROW     6   COL     4   RATE     0.00000    
 AG WELL      2   ROW     6   COL     5   RATE     0.00000    
 AG WELL      3   ROW     7   COL     4   RATE     0.00000    
 AG WELL      4   ROW     7   COL     5   RATE     0.00000    
 AG WELL      5   ROW     8   COL     4   RATE     0.00000    
 AG WELL      6   ROW     8   COL     5   RATE     0.00000    
 
1
  VOLUMETRIC BUDGET FOR AGRICULTURAL FIELDS AT  END OF TIME STEP    7, STRESS PERIOD   5
  ------------------------------------------------------------------------------

     CUMULATIVE VOLUMES      L**3       RATES FOR THIS TIME STEP      L**3/T
     ------------------                 ------------------------

           IN:                                      IN:
           ---                                      ---
               AG WELLS  =           0.0000                 AG WELLS  =           0.0000
      DIVERSION SEGMENTS =     1671975.1250        DIVERSION SEGMENTS =           3.4737
           GW IRRIGATION =           0.0000             GW IRRIGATION =           0.0000
           SW IRRIGATION =           0.0000             SW IRRIGATION =           0.0000
        SYSTEM LOSSES GW =           0.0000          SYSTEM LOSSES GW =           0.0000
        SYSTEM LOSSES SW =           0.0000          SYSTEM LOSSES SW =           0.0000

                TOTAL IN =     1671975.1250                  TOTAL IN =           3.4737

          OUT:                                     OUT:
          ----                                     ----
               AG WELLS  =           0.0000                 AG WELLS  =           0.0000
      DIVERSION SEGMENTS =           0.0000        DIVERSION SEGMENTS =           0.0000
           GW IRRIGATION =           0.0000             GW IRRIGATION =           0.0000
           SW IRRIGATION =     1672008.2500             SW IRRIGATION =           3.4738
        SYSTEM LOSSES GW =           0.0000          SYSTEM LOSSES GW =           0.0000
        SYSTEM LOSSES SW =           0.0000          SYSTEM LOSSES SW =           0.0000

               TOTAL OUT =     1672008.2500                 TOTAL OUT =           3.4738

                IN - OUT =         -33.1250                  IN - OUT =      -6.9141E-05

     PERCENT DISCREPANCY =          -0.00         PERCENT DISCREPANCY =          -0.00



1
  VOLUMETRIC BUDGET FOR ENTIRE MODEL AT END OF TIME STEP    7, STRESS PERIOD   5
  ------------------------------------------------------------------------------

     CUMULATIVE VOLUMES      L**3       RATES FOR THIS TIME STEP      L**3/T
     ------------------                 ------------------------

           IN:                                      IN:
           ---                                      ---
             STORAGE     =     5251950.5000               STORAGE     =           1.3887
       CONSTANT HEAD     =           0.0000         CONSTANT HEAD     =           0.0000
     HEAD DEP BOUNDS     =     2472447.7500       HEAD DEP BOUNDS     =           0.2879
      STREAM LEAKAGE     =   100357288.0000        STREAM LEAKAGE     =          11.2336
        UZF RECHARGE     =       73223.9531          UZF RECHARGE     =           0.0000
               GW ET     =           0.0000                 GW ET     =           0.0000
     SURFACE LEAKAGE     =           0.0000       SURFACE LEAKAGE     =           0.0000
           AG WELLS      =           0.0000             AG WELLS      =           0.0000

                TOTAL IN =   108154912.0000                  TOTAL IN =          12.9102

          OUT:                                     OUT:
          ----                                     ----
             STORAGE     =    18458298.0000               STORAGE     =           1.4364
       CONSTANT HEAD     =           0.0000         CONSTANT HEAD     =           0.0000
     HEAD DEP BOUNDS     =     2475497.0000       HEAD DEP BOUNDS     =           0.2894
      STREAM LEAKAGE     =    87223992.0000        STREAM LEAKAGE     =          11.1826
        UZF RECHARGE     =           0.0000          UZF RECHARGE     =           0.0000
               GW ET     =           0.0000                 GW ET     =           0.0000
     SURFACE LEAKAGE     =           0.0000       SURFACE LEAKAGE     =           0.0000
           AG WELLS      =           0.0000             AG WELLS      =           0.0000

               TOTAL OUT =   108157792.0000                 TOTAL OUT =          12.9084

                IN - OUT =       -2880.0000                  IN - OUT =       1.7939E-03

     PERCENT DISCREPANCY =          -0.00         PERCENT DISCREPANCY =           0.01






         TIME SUMMARY AT END OF TIME STEP    7 IN STRESS PERIOD    5
                    SECONDS     MINUTES      HOURS       DAYS        YEARS
                    -----------------------------------------------------------
   TIME STEP LENGTH  87667.      1461.1      24.352      1.0147     2.77799E-03
 STRESS PERIOD TIME 6.13667E+05  10228.      170.46      7.1026     1.94459E-02
         TOTAL TIME 8.59006E+06 1.43168E+05  2386.1      99.422     0.27220    
1
 
 SOLVING FOR HEAD 
                                                   Max.-Head-Change                         Max.-Flux-Residual
  Residual-Control   Outer-Iter.   Inner-Iter.     Column Row Layer    Maximum-Head-Change  Column Row Layer    Maximum-Flux-Residual          L2-NORM 
          0                 1           2             2   13     1      -0.3055319831E-02       2   13    1        -0.1715354431E+00      0.3936684877E+00
          0                 2           2             4   13     1      -0.4348407083E-03       4   13    1        -0.2490562548E-01      0.5017642551E-01
          0                 3           2             4   13     1      -0.3057532424E-03       4   13    1        -0.1748613210E-01      0.3128074272E-01
          0                 4           2             4   13     1      -0.1417362731E-03       4   13    1        -0.8106967976E-02      0.1441461362E-01
          0                 5           1             4   13     1      -0.7235784415E-04       4   13    1        -0.4138392997E-02      0.7370467564E-02

    ------------------------------------------------
       NWT REQUIRED            5 OUTER ITERATIONS 
       AND A TOTAL OF          9 INNER ITERATIONS.
    ------------------------------------------------

 OUTPUT CONTROL FOR STRESS PERIOD    5   TIME STEP    8
    PRINT BUDGET
    SAVE BUDGET
 UBDSV1 SAVING "         STORAGE" ON UNIT 102 AT TIME STEP  8, STRESS PERIOD   5
 UBDSV2 SAVING "   CONSTANT HEAD" ON UNIT 102 AT TIME STEP  8, STRESS PERIOD   5
 UBDSV1 SAVING "FLOW RIGHT FACE " ON UNIT 102 AT TIME STEP  8, STRESS PERIOD   5
 UBDSV1 SAVING "FLOW FRONT FACE " ON UNIT 102 AT TIME STEP  8, STRESS PERIOD   5

  HEAD DEP BOUNDS   PERIOD    5   STEP     8
 BOUNDARY      1   LAYER   1   ROW    13   COL     1   RATE   -0.289311    
 BOUNDARY      2   LAYER   1   ROW    14   COL     9   RATE    0.287888    



 STREAM LISTING     PERIOD      5   STEP        8

 LAYER ROW COL. STREAM  RCH.  FLOW INTO     FLOW TO   FLOW OUT OF   OVRLND.     DIRECT     STREAM       STREAM     STREAM     STREAM   STREAMBED  STREAMBED
                SEG.NO.  NO.  STRM. RCH.    AQUIFER    STRM. RCH.    RUNOFF     PRECIP       ET          HEAD       DEPTH      WIDTH   CONDCTNC.   GRADIENT

   1    1    1     1     1    1.0500E+01  1.5271E-01   1.0347E+01  0.000E+00  0.000E+00  0.000E+00  1.09396E+03  9.109E-01  8.677E+00  3.905E-02  1.304E+00
   1    2    2     1     2    1.0347E+01  2.3505E-01   1.0112E+01  0.000E+00  0.000E+00  0.000E+00  1.08896E+03  9.059E-01  8.597E+00  6.018E-02  1.302E+00
   1    3    3     1     3    1.0112E+01  1.9904E-01   9.9132E+00  0.000E+00  0.000E+00  0.000E+00  1.08332E+03  9.003E-01  8.505E+00  5.103E-02  1.300E+00
   1    3    4     1     4    9.9132E+00  1.8195E-01   9.7313E+00  0.000E+00  0.000E+00  0.000E+00  1.07830E+03  8.947E-01  8.417E+00  4.672E-02  1.298E+00
   1    4    5     2     1    7.7313E+00  2.8007E-01   7.4512E+00  0.000E+00  0.000E+00  0.000E+00  1.07252E+03  5.907E-01  1.200E+01  7.800E-02  1.197E+00
   1    5    6     2     2    7.4512E+00  2.1474E-01   7.2365E+00  0.000E+00  0.000E+00  0.000E+00  1.06709E+03  5.790E-01  1.200E+01  6.000E-02  1.193E+00
   1    6    6     2     3    7.2365E+00  2.1413E-01   7.0224E+00  0.000E+00  0.000E+00  0.000E+00  1.06236E+03  5.688E-01  1.200E+01  6.000E-02  1.190E+00
   1    7    6     2     4    7.0224E+00  2.1351E-01   6.8088E+00  0.000E+00  0.000E+00  0.000E+00  1.05763E+03  5.585E-01  1.200E+01  6.000E-02  1.186E+00
   1    8    6     2     5    6.8088E+00  2.1289E-01   6.5960E+00  0.000E+00  0.000E+00  0.000E+00  1.05291E+03  5.481E-01  1.200E+01  6.000E-02  1.183E+00
   1    3    5     3     1    2.0000E+00  2.8252E-01   1.7175E+00  0.000E+00  0.000E+00  0.000E+00  1.07555E+03  1.909E+00  9.636E+00  7.227E-02  1.955E+00
   1    3    6     3     2    1.7175E+00  2.4905E-01   1.4684E+00  0.000E+00  0.000E+00  0.000E+00  1.07264E+03  1.727E+00  8.909E+00  6.682E-02  1.864E+00
   1    3    7     3     3    1.4684E+00  1.9718E-01   1.2712E+00  0.000E+00  0.000E+00  0.000E+00  1.06987E+03  1.555E+00  8.218E+00  5.547E-02  1.777E+00
   1    4    8     3     4    1.2712E+00  2.2567E-01   1.0456E+00  0.000E+00  0.000E+00  0.000E+00  1.06682E+03  1.364E+00  7.455E+00  6.709E-02  1.682E+00
   1    5    8     3     5    1.0456E+00  1.5790E-01   8.8768E-01  0.000E+00  0.000E+00  0.000E+00  1.06362E+03  1.164E+00  6.655E+00  4.991E-02  1.582E+00
   1    6    8     3     6    8.8768E-01  5.5980E-02   8.3170E-01  0.000E+00  0.000E+00  0.000E+00  1.06158E+03  1.036E+00  6.145E+00  1.844E-02  1.518E+00
   1    5   10     4     1    1.0000E+01  9.0919E-02   9.9091E+00  0.000E+00  0.000E+00  0.000E+00  1.07836E+03  6.368E-01  1.000E+01  2.500E-02  1.212E+00
   1    5    9     4     2    9.9091E+00  1.8158E-01   9.7275E+00  0.000E+00  0.000E+00  0.000E+00  1.07154E+03  6.315E-01  1.000E+01  5.000E-02  1.211E+00
   1    6    8     4     3    9.7275E+00  1.2689E-01   9.6006E+00  0.000E+00  0.000E+00  0.000E+00  1.06381E+03  6.256E-01  1.000E+01  3.500E-02  1.209E+00
   1    6    8     5     1    1.0432E+01  2.2686E-01   1.0205E+01  0.000E+00  0.000E+00  0.000E+00  1.05868E+03  6.790E-01  1.542E+01  6.166E-02  1.226E+00
   1    7    7     5     2    1.0205E+01  2.7894E-01   9.9265E+00  0.000E+00  0.000E+00  0.000E+00  1.05417E+03  6.732E-01  1.519E+01  7.594E-02  1.224E+00
   1    8    7     5     3    9.9265E+00  1.9221E-01   9.7343E+00  0.000E+00  0.000E+00  0.000E+00  1.04992E+03  6.676E-01  1.497E+01  5.241E-02  1.223E+00
   1    8    6     5     4    9.7343E+00  1.3577E-01   9.5985E+00  0.000E+00  0.000E+00  0.000E+00  1.04691E+03  6.637E-01  1.482E+01  3.706E-02  1.221E+00
   1    9    6     6     1    1.2728E+01  2.2886E-01   1.2499E+01  0.000E+00  0.000E+00  0.000E+00  1.04354E+03  8.143E-01  1.200E+01  6.000E-02  1.271E+00
   1   10    7     6     2    1.2499E+01  2.2833E-01   1.2271E+01  0.000E+00  0.000E+00  0.000E+00  1.03899E+03  8.055E-01  1.200E+01  6.000E-02  1.268E+00
   1   11    7     6     3    1.2271E+01  2.2780E-01   1.2043E+01  0.000E+00  0.000E+00  0.000E+00  1.03443E+03  7.966E-01  1.200E+01  6.000E-02  1.266E+00
   1   12    7     6     4    1.2043E+01  2.2726E-01   1.1816E+01  0.000E+00  0.000E+00  0.000E+00  1.02988E+03  7.877E-01  1.200E+01  6.000E-02  1.263E+00
   1   13    7     6     5    1.1816E+01 -3.8862E-02   1.1855E+01  0.000E+00  0.000E+00  0.000E+00  1.02669E+03  7.840E-01  1.200E+01  2.400E-01 -5.398E-02
   1   14    9     7     1    1.5000E+02  1.3671E+00   1.4863E+02  0.000E+00  0.000E+00  0.000E+00  1.03987E+03  2.288E+00  5.529E+01  5.593E-01  8.148E-01
   1   13    8     7     2    1.4863E+02  1.9168E+00   1.4672E+02  0.000E+00  0.000E+00  0.000E+00  1.03478E+03  2.279E+00  5.526E+01  6.148E-01  1.039E+00
   1   13    7     7     3    1.4672E+02  1.5824E+00   1.4513E+02  0.000E+00  0.000E+00  0.000E+00  1.02969E+03  2.270E+00  5.521E+01  5.584E-01  9.446E-01
   1   13    6     8     1    1.5699E+02  9.4793E-01   1.5604E+02  0.000E+00  0.000E+00  0.000E+00  1.02474E+03  2.863E+00  4.151E+01  4.230E-01  7.470E-01
   1   13    5     8     2    1.5604E+02  2.0254E-01   1.5584E+02  0.000E+00  0.000E+00  0.000E+00  1.01848E+03  2.859E+00  4.145E+01  4.224E-01  1.598E-01
   1   13    4     8     3    1.5584E+02 -2.4696E+00   1.5831E+02  0.000E+00  0.000E+00  0.000E+00  1.01224E+03  2.867E+00  4.157E+01  4.236E+00 -1.943E-01
   1   13    3     8     4    1.5831E+02 -3.7473E+00   1.6206E+02  0.000E+00  0.000E+00  0.000E+00  1.00601E+03  2.888E+00  4.187E+01  4.267E+00 -2.927E-01
   1   13    2     8     5    1.6206E+02 -2.7667E+00   1.6482E+02  0.000E+00  0.000E+00  0.000E+00  9.99785E+02  2.910E+00  4.219E+01  4.299E+00 -2.145E-01
   1   13    1     8     6    1.6482E+02 -2.1078E+00   1.6693E+02  0.000E+00  0.000E+00  0.000E+00  9.94801E+02  2.926E+00  4.243E+01  2.594E+00 -2.709E-01
   1    8    6     9     1    3.4661E+00  0.0000E+00   3.4661E+00  0.000E+00  0.000E+00  0.000E+00  1.07993E+03  1.177E+00  4.000E+00  0.000E+00  1.392E+00
   1    8    5     9     2    3.4661E+00  0.0000E+00   3.4661E+00  0.000E+00  0.000E+00  0.000E+00  1.07943E+03  1.177E+00  4.000E+00  0.000E+00  1.392E+00



 UBDSV3 SAVING "           GW ET" ON UNIT  61 AT TIME STEP  8, STRESS PERIOD   5
 UBDSV3 SAVING "    UZF RECHARGE" ON UNIT  61 AT TIME STEP  8, STRESS PERIOD   5
 UBDSV3 SAVING " SURFACE LEAKAGE" ON UNIT  61 AT TIME STEP  8, STRESS PERIOD   5
 UBDSV3 SAVING "       HORT+DUNN" ON UNIT  61 AT TIME STEP  8, STRESS PERIOD   5
 UBDSV3 SAVING "  STORAGE CHANGE" ON UNIT  61 AT TIME STEP  8, STRESS PERIOD   5


UNSATURATED ZONE PACKAGE VOLUMETRIC BUDGET FOR  TIME STEP     8 STRESS PERIOD    5
  ------------------------------------------------------------------------------



     CUMULATIVE VOLUMES      L**3       RATES FOR THIS TIME STEP      L**3/T
     ------------------                 ------------------------

           IN:                                      IN:
           ---                                      ---
        INFILTRATION =    39915404.4514          INFILTRATION =           7.8737

          OUT:                                     OUT:
          ----                                     ----
              UZF ET =    20203182.4893                UZF ET =          16.1400
        UZF RECHARGE =       73224.0000          UZF RECHARGE =       0.0000E+00

            IN - OUT =    19638997.9622              IN - OUT =          -8.2663

          STORAGE:                                 STORAGE:
          --------                                 --------
      STORAGE CHANGE =    19638997.6421        STORAGE CHANGE =          -8.2663

 PERCENT DISCREPANCY IS DIFFERENCE BETWEEN IN-OUT MINUS CHANGE IN STORAGE
 DIVIDED BY THE AVERAGE OF IN AND OUT TIMES 100

 PERCENT DISCREPANCY =           0.00     PERCENT DISCREPANCY =           0.00






 

            AG WELLS      PERIOD    5   STEP   8
 AG WELL      1   LAYER   1   ROW     6   COL     4   RATE     0.00000    
 AG WELL      2   LAYER   1   ROW     6   COL     5   RATE     0.00000    
 AG WELL      3   LAYER   1   ROW     7   COL     4   RATE     0.00000    
 AG WELL      4   LAYER   1   ROW     7   COL     5   RATE     0.00000    
 AG WELL      5   LAYER   1   ROW     8   COL     4   RATE     0.00000    
 AG WELL      6   LAYER   1   ROW     8   COL     5   RATE     0.00000    
 
 

   DIVERSION SEGMENTS     PERIOD    5   STEP   8
 SEGMENT      9   RATE     3.46615    
 
 

        SW IRRIGATION     PERIOD    5   STEP   8
 SEGMENT      9   ROW     6   COL     4   RATE    0.577703    
 SEGMENT      9   ROW     6   COL     5   RATE    0.577703    
 SEGMENT      9   ROW     7   COL     4   RATE    0.577703    
 SEGMENT      9   ROW     7   COL     5   RATE    0.577703    
 SEGMENT      9   ROW     8   COL     4   RATE    0.577703    
 SEGMENT      9   ROW     8   COL     5   RATE    0.577703    
 
 

        GW IRRIGATION     PERIOD    5   STEP   8
 AG WELL      1   ROW     6   COL     4   RATE     0.00000    
 AG WELL      2   ROW     6   COL     5   RATE     0.00000    
 AG WELL      3   ROW     7   COL     4   RATE     0.00000    
 AG WELL      4   ROW     7   COL     5   RATE     0.00000    
 AG WELL      5   ROW     8   COL     4   RATE     0.00000    
 AG WELL      6   ROW     8   COL     5   RATE     0.00000    
 
1
  VOLUMETRIC BUDGET FOR AGRICULTURAL FIELDS AT  END OF TIME STEP    8, STRESS PERIOD   5
  ------------------------------------------------------------------------------

     CUMULATIVE VOLUMES      L**3       RATES FOR THIS TIME STEP      L**3/T
     ------------------                 ------------------------

           IN:                                      IN:
           ---                                      ---
               AG WELLS  =           0.0000                 AG WELLS  =           0.0000
      DIVERSION SEGMENTS =     1975840.8750        DIVERSION SEGMENTS =           3.4661
           GW IRRIGATION =           0.0000             GW IRRIGATION =           0.0000
           SW IRRIGATION =           0.0000             SW IRRIGATION =           0.0000
        SYSTEM LOSSES GW =           0.0000          SYSTEM LOSSES GW =           0.0000
        SYSTEM LOSSES SW =           0.0000          SYSTEM LOSSES SW =           0.0000

                TOTAL IN =     1975840.8750                  TOTAL IN =           3.4661

          OUT:                                     OUT:
          ----                                     ----
               AG WELLS  =           0.0000                 AG WELLS  =           0.0000
      DIVERSION SEGMENTS =           0.0000        DIVERSION SEGMENTS =           0.0000
           GW IRRIGATION =           0.0000             GW IRRIGATION =           0.0000
           SW IRRIGATION =     1975880.1250             SW IRRIGATION =           3.4662
        SYSTEM LOSSES GW =           0.0000          SYSTEM LOSSES GW =           0.0000
        SYSTEM LOSSES SW =           0.0000          SYSTEM LOSSES SW =           0.0000

               TOTAL OUT =     1975880.1250                 TOTAL OUT =           3.4662

                IN - OUT =         -39.2500                  IN - OUT =      -6.9380E-05

     PERCENT DISCREPANCY =          -0.00         PERCENT DISCREPANCY =          -0.00



1
  VOLUMETRIC BUDGET FOR ENTIRE MODEL AT END OF TIME STEP    8, STRESS PERIOD   5
  ------------------------------------------------------------------------------

     CUMULATIVE VOLUMES      L**3       RATES FOR THIS TIME STEP      L**3/T
     ------------------                 ------------------------

           IN:                                      IN:
           ---                                      ---
             STORAGE     =     5368221.5000               STORAGE     =           1.3263
       CONSTANT HEAD     =           0.0000         CONSTANT HEAD     =           0.0000
     HEAD DEP BOUNDS     =     2497686.0000       HEAD DEP BOUNDS     =           0.2879
      STREAM LEAKAGE     =   101342184.0000        STREAM LEAKAGE     =          11.2346
        UZF RECHARGE     =       73223.9531          UZF RECHARGE     =           0.0000
               GW ET     =           0.0000                 GW ET     =           0.0000
     SURFACE LEAKAGE     =           0.0000       SURFACE LEAKAGE     =           0.0000
           AG WELLS      =           0.0000             AG WELLS      =           0.0000

                TOTAL IN =   109281312.0000                  TOTAL IN =          12.8488

          OUT:                                     OUT:
          ----                                     ----
             STORAGE     =    18583436.0000               STORAGE     =           1.4274
       CONSTANT HEAD     =           0.0000         CONSTANT HEAD     =           0.0000
     HEAD DEP BOUNDS     =     2500860.0000       HEAD DEP BOUNDS     =           0.2893
      STREAM LEAKAGE     =    88199744.0000        STREAM LEAKAGE     =          11.1302
        UZF RECHARGE     =           0.0000          UZF RECHARGE     =           0.0000
               GW ET     =           0.0000                 GW ET     =           0.0000
     SURFACE LEAKAGE     =           0.0000       SURFACE LEAKAGE     =           0.0000
           AG WELLS      =           0.0000             AG WELLS      =           0.0000

               TOTAL OUT =   109284040.0000                 TOTAL OUT =          12.8470

                IN - OUT =       -2728.0000                  IN - OUT =       1.7700E-03

     PERCENT DISCREPANCY =          -0.00         PERCENT DISCREPANCY =           0.01






         TIME SUMMARY AT END OF TIME STEP    8 IN STRESS PERIOD    5
                    SECONDS     MINUTES      HOURS       DAYS        YEARS
                    -----------------------------------------------------------
   TIME STEP LENGTH  87667.      1461.1      24.352      1.0147     2.77799E-03
 STRESS PERIOD TIME 7.01333E+05  11689.      194.81      8.1173     2.22239E-02
         TOTAL TIME 8.67773E+06 1.44629E+05  2410.5      100.44     0.27498    
1
 
 SOLVING FOR HEAD 
                                                   Max.-Head-Change                         Max.-Flux-Residual
  Residual-Control   Outer-Iter.   Inner-Iter.     Column Row Layer    Maximum-Head-Change  Column Row Layer    Maximum-Flux-Residual          L2-NORM 
          0                 1           2             2   13     1      -0.2744862640E-02       2   13    1        -0.1540783747E+00      0.3696782569E+00
          0                 2           2             4   13     1      -0.4716675205E-03       4   13    1        -0.2702136984E-01      0.5272359992E-01
          0                 3           2             4   13     1      -0.3005742045E-03       4   13    1        -0.1718899712E-01      0.3081724903E-01
          0                 4           2             4   13     1      -0.1444355417E-03       4   13    1        -0.8261449183E-02      0.1467769968E-01
          0                 5           1             4   13     1      -0.7303599036E-04       4   13    1        -0.4177153500E-02      0.7441695090E-02

    ------------------------------------------------
       NWT REQUIRED            5 OUTER ITERATIONS 
       AND A TOTAL OF          9 INNER ITERATIONS.
    ------------------------------------------------

 OUTPUT CONTROL FOR STRESS PERIOD    5   TIME STEP    9
    PRINT BUDGET
    SAVE BUDGET
 UBDSV1 SAVING "         STORAGE" ON UNIT 102 AT TIME STEP  9, STRESS PERIOD   5
 UBDSV2 SAVING "   CONSTANT HEAD" ON UNIT 102 AT TIME STEP  9, STRESS PERIOD   5
 UBDSV1 SAVING "FLOW RIGHT FACE " ON UNIT 102 AT TIME STEP  9, STRESS PERIOD   5
 UBDSV1 SAVING "FLOW FRONT FACE " ON UNIT 102 AT TIME STEP  9, STRESS PERIOD   5

  HEAD DEP BOUNDS   PERIOD    5   STEP     9
 BOUNDARY      1   LAYER   1   ROW    13   COL     1   RATE   -0.289218    
 BOUNDARY      2   LAYER   1   ROW    14   COL     9   RATE    0.287889    



 STREAM LISTING     PERIOD      5   STEP        9

 LAYER ROW COL. STREAM  RCH.  FLOW INTO     FLOW TO   FLOW OUT OF   OVRLND.     DIRECT     STREAM       STREAM     STREAM     STREAM   STREAMBED  STREAMBED
                SEG.NO.  NO.  STRM. RCH.    AQUIFER    STRM. RCH.    RUNOFF     PRECIP       ET          HEAD       DEPTH      WIDTH   CONDCTNC.   GRADIENT

   1    1    1     1     1    1.0500E+01  1.5271E-01   1.0347E+01  0.000E+00  0.000E+00  0.000E+00  1.09396E+03  9.109E-01  8.677E+00  3.905E-02  1.304E+00
   1    2    2     1     2    1.0347E+01  2.3505E-01   1.0112E+01  0.000E+00  0.000E+00  0.000E+00  1.08896E+03  9.059E-01  8.597E+00  6.018E-02  1.302E+00
   1    3    3     1     3    1.0112E+01  1.9904E-01   9.9132E+00  0.000E+00  0.000E+00  0.000E+00  1.08332E+03  9.003E-01  8.505E+00  5.103E-02  1.300E+00
   1    3    4     1     4    9.9132E+00  1.8195E-01   9.7313E+00  0.000E+00  0.000E+00  0.000E+00  1.07830E+03  8.947E-01  8.417E+00  4.672E-02  1.298E+00
   1    4    5     2     1    7.7313E+00  2.8007E-01   7.4512E+00  0.000E+00  0.000E+00  0.000E+00  1.07252E+03  5.907E-01  1.200E+01  7.800E-02  1.197E+00
   1    5    6     2     2    7.4512E+00  2.1474E-01   7.2365E+00  0.000E+00  0.000E+00  0.000E+00  1.06709E+03  5.790E-01  1.200E+01  6.000E-02  1.193E+00
   1    6    6     2     3    7.2365E+00  2.1413E-01   7.0224E+00  0.000E+00  0.000E+00  0.000E+00  1.06236E+03  5.688E-01  1.200E+01  6.000E-02  1.190E+00
   1    7    6     2     4    7.0224E+00  2.1351E-01   6.8088E+00  0.000E+00  0.000E+00  0.000E+00  1.05763E+03  5.585E-01  1.200E+01  6.000E-02  1.186E+00
   1    8    6     2     5    6.8088E+00  2.1289E-01   6.5960E+00  0.000E+00  0.000E+00  0.000E+00  1.05291E+03  5.481E-01  1.200E+01  6.000E-02  1.183E+00
   1    3    5     3     1    2.0000E+00  2.8252E-01   1.7175E+00  0.000E+00  0.000E+00  0.000E+00  1.07555E+03  1.909E+00  9.636E+00  7.227E-02  1.955E+00
   1    3    6     3     2    1.7175E+00  2.4905E-01   1.4684E+00  0.000E+00  0.000E+00  0.000E+00  1.07264E+03  1.727E+00  8.909E+00  6.682E-02  1.864E+00
   1    3    7     3     3    1.4684E+00  1.9718E-01   1.2712E+00  0.000E+00  0.000E+00  0.000E+00  1.06987E+03  1.555E+00  8.218E+00  5.547E-02  1.777E+00
   1    4    8     3     4    1.2712E+00  2.2567E-01   1.0456E+00  0.000E+00  0.000E+00  0.000E+00  1.06682E+03  1.364E+00  7.455E+00  6.709E-02  1.682E+00
   1    5    8     3     5    1.0456E+00  1.5790E-01   8.8768E-01  0.000E+00  0.000E+00  0.000E+00  1.06362E+03  1.164E+00  6.655E+00  4.991E-02  1.582E+00
   1    6    8     3     6    8.8768E-01  5.5980E-02   8.3170E-01  0.000E+00  0.000E+00  0.000E+00  1.06158E+03  1.036E+00  6.145E+00  1.844E-02  1.518E+00
   1    5   10     4     1    1.0000E+01  9.0919E-02   9.9091E+00  0.000E+00  0.000E+00  0.000E+00  1.07836E+03  6.368E-01  1.000E+01  2.500E-02  1.212E+00
   1    5    9     4     2    9.9091E+00  1.8158E-01   9.7275E+00  0.000E+00  0.000E+00  0.000E+00  1.07154E+03  6.315E-01  1.000E+01  5.000E-02  1.211E+00
   1    6    8     4     3    9.7275E+00  1.2689E-01   9.6006E+00  0.000E+00  0.000E+00  0.000E+00  1.06381E+03  6.256E-01  1.000E+01  3.500E-02  1.209E+00
   1    6    8     5     1    1.0432E+01  2.2686E-01   1.0205E+01  0.000E+00  0.000E+00  0.000E+00  1.05868E+03  6.790E-01  1.542E+01  6.166E-02  1.226E+00
   1    7    7     5     2    1.0205E+01  2.7894E-01   9.9265E+00  0.000E+00  0.000E+00  0.000E+00  1.05417E+03  6.732E-01  1.519E+01  7.594E-02  1.224E+00
   1    8    7     5     3    9.9265E+00  1.9221E-01   9.7343E+00  0.000E+00  0.000E+00  0.000E+00  1.04992E+03  6.676E-01  1.497E+01  5.241E-02  1.223E+00
   1    8    6     5     4    9.7343E+00  1.3577E-01   9.5985E+00  0.000E+00  0.000E+00  0.000E+00  1.04691E+03  6.637E-01  1.482E+01  3.706E-02  1.221E+00
   1    9    6     6     1    1.2725E+01  2.2885E-01   1.2496E+01  0.000E+00  0.000E+00  0.000E+00  1.04354E+03  8.142E-01  1.200E+01  6.000E-02  1.271E+00
   1   10    7     6     2    1.2496E+01  2.2832E-01   1.2268E+01  0.000E+00  0.000E+00  0.000E+00  1.03899E+03  8.054E-01  1.200E+01  6.000E-02  1.268E+00
   1   11    7     6     3    1.2268E+01  2.2779E-01   1.2040E+01  0.000E+00  0.000E+00  0.000E+00  1.03443E+03  7.965E-01  1.200E+01  6.000E-02  1.266E+00
   1   12    7     6     4    1.2040E+01  2.2726E-01   1.1813E+01  0.000E+00  0.000E+00  0.000E+00  1.02988E+03  7.876E-01  1.200E+01  6.000E-02  1.263E+00
   1   13    7     6     5    1.1813E+01 -3.8791E-02   1.1852E+01  0.000E+00  0.000E+00  0.000E+00  1.02669E+03  7.839E-01  1.200E+01  2.400E-01 -5.388E-02
   1   14    9     7     1    1.5000E+02  1.3671E+00   1.4863E+02  0.000E+00  0.000E+00  0.000E+00  1.03987E+03  2.288E+00  5.529E+01  5.593E-01  8.148E-01
   1   13    8     7     2    1.4863E+02  1.9167E+00   1.4672E+02  0.000E+00  0.000E+00  0.000E+00  1.03478E+03  2.279E+00  5.526E+01  6.148E-01  1.039E+00
   1   13    7     7     3    1.4672E+02  1.5827E+00   1.4513E+02  0.000E+00  0.000E+00  0.000E+00  1.02969E+03  2.270E+00  5.521E+01  5.584E-01  9.448E-01
   1   13    6     8     1    1.5698E+02  9.4825E-01   1.5604E+02  0.000E+00  0.000E+00  0.000E+00  1.02474E+03  2.863E+00  4.151E+01  4.230E-01  7.472E-01
   1   13    5     8     2    1.5604E+02  2.0285E-01   1.5583E+02  0.000E+00  0.000E+00  0.000E+00  1.01848E+03  2.859E+00  4.145E+01  4.224E-01  1.601E-01
   1   13    4     8     3    1.5583E+02 -2.4559E+00   1.5829E+02  0.000E+00  0.000E+00  0.000E+00  1.01224E+03  2.867E+00  4.157E+01  4.236E+00 -1.933E-01
   1   13    3     8     4    1.5829E+02 -3.7340E+00   1.6202E+02  0.000E+00  0.000E+00  0.000E+00  1.00601E+03  2.888E+00  4.187E+01  4.267E+00 -2.917E-01
   1   13    2     8     5    1.6202E+02 -2.7519E+00   1.6478E+02  0.000E+00  0.000E+00  0.000E+00  9.99784E+02  2.909E+00  4.219E+01  4.299E+00 -2.134E-01
   1   13    1     8     6    1.6478E+02 -2.1020E+00   1.6688E+02  0.000E+00  0.000E+00  0.000E+00  9.94801E+02  2.926E+00  4.242E+01  2.594E+00 -2.701E-01
   1    8    6     9     1    3.4695E+00  0.0000E+00   3.4695E+00  0.000E+00  0.000E+00  0.000E+00  1.07993E+03  1.177E+00  4.000E+00  0.000E+00  1.392E+00
   1    8    5     9     2    3.4695E+00  0.0000E+00   3.4695E+00  0.000E+00  0.000E+00  0.000E+00  1.07943E+03  1.177E+00  4.000E+00  0.000E+00  1.392E+00



 UBDSV3 SAVING "           GW ET" ON UNIT  61 AT TIME STEP  9, STRESS PERIOD   5
 UBDSV3 SAVING "    UZF RECHARGE" ON UNIT  61 AT TIME STEP  9, STRESS PERIOD   5
 UBDSV3 SAVING " SURFACE LEAKAGE" ON UNIT  61 AT TIME STEP  9, STRESS PERIOD   5
 UBDSV3 SAVING "       HORT+DUNN" ON UNIT  61 AT TIME STEP  9, STRESS PERIOD   5
 UBDSV3 SAVING "  STORAGE CHANGE" ON UNIT  61 AT TIME STEP  9, STRESS PERIOD   5


UNSATURATED ZONE PACKAGE VOLUMETRIC BUDGET FOR  TIME STEP     9 STRESS PERIOD    5
  ------------------------------------------------------------------------------



     CUMULATIVE VOLUMES      L**3       RATES FOR THIS TIME STEP      L**3/T
     ------------------                 ------------------------

           IN:                                      IN:
           ---                                      ---
        INFILTRATION =    40605964.6575          INFILTRATION =           7.8771

          OUT:                                     OUT:
          ----                                     ----
              UZF ET =    21100405.8789                UZF ET =          10.2345
        UZF RECHARGE =       73224.0000          UZF RECHARGE =       0.0000E+00

            IN - OUT =    19432334.7786              IN - OUT =          -2.3574

          STORAGE:                                 STORAGE:
          --------                                 --------
      STORAGE CHANGE =    19432334.4497        STORAGE CHANGE =          -2.3574

 PERCENT DISCREPANCY IS DIFFERENCE BETWEEN IN-OUT MINUS CHANGE IN STORAGE
 DIVIDED BY THE AVERAGE OF IN AND OUT TIMES 100

 PERCENT DISCREPANCY =           0.00     PERCENT DISCREPANCY =           0.00






 

            AG WELLS      PERIOD    5   STEP   9
 AG WELL      1   LAYER   1   ROW     6   COL     4   RATE     0.00000    
 AG WELL      2   LAYER   1   ROW     6   COL     5   RATE     0.00000    
 AG WELL      3   LAYER   1   ROW     7   COL     4   RATE     0.00000    
 AG WELL      4   LAYER   1   ROW     7   COL     5   RATE     0.00000    
 AG WELL      5   LAYER   1   ROW     8   COL     4   RATE     0.00000    
 AG WELL      6   LAYER   1   ROW     8   COL     5   RATE     0.00000    
 
 

   DIVERSION SEGMENTS     PERIOD    5   STEP   9
 SEGMENT      9   RATE     3.46954    
 
 

        SW IRRIGATION     PERIOD    5   STEP   9
 SEGMENT      9   ROW     6   COL     4   RATE    0.578269    
 SEGMENT      9   ROW     6   COL     5   RATE    0.578269    
 SEGMENT      9   ROW     7   COL     4   RATE    0.578269    
 SEGMENT      9   ROW     7   COL     5   RATE    0.578269    
 SEGMENT      9   ROW     8   COL     4   RATE    0.578269    
 SEGMENT      9   ROW     8   COL     5   RATE    0.578269    
 
 

        GW IRRIGATION     PERIOD    5   STEP   9
 AG WELL      1   ROW     6   COL     4   RATE     0.00000    
 AG WELL      2   ROW     6   COL     5   RATE     0.00000    
 AG WELL      3   ROW     7   COL     4   RATE     0.00000    
 AG WELL      4   ROW     7   COL     5   RATE     0.00000    
 AG WELL      5   ROW     8   COL     4   RATE     0.00000    
 AG WELL      6   ROW     8   COL     5   RATE     0.00000    
 
1
  VOLUMETRIC BUDGET FOR AGRICULTURAL FIELDS AT  END OF TIME STEP    9, STRESS PERIOD   5
  ------------------------------------------------------------------------------

     CUMULATIVE VOLUMES      L**3       RATES FOR THIS TIME STEP      L**3/T
     ------------------                 ------------------------

           IN:                                      IN:
           ---                                      ---
               AG WELLS  =           0.0000                 AG WELLS  =           0.0000
      DIVERSION SEGMENTS =     2280004.2500        DIVERSION SEGMENTS =           3.4695
           GW IRRIGATION =           0.0000             GW IRRIGATION =           0.0000
           SW IRRIGATION =           0.0000             SW IRRIGATION =           0.0000
        SYSTEM LOSSES GW =           0.0000          SYSTEM LOSSES GW =           0.0000
        SYSTEM LOSSES SW =           0.0000          SYSTEM LOSSES SW =           0.0000

                TOTAL IN =     2280004.2500                  TOTAL IN =           3.4695

          OUT:                                     OUT:
          ----                                     ----
               AG WELLS  =           0.0000                 AG WELLS  =           0.0000
      DIVERSION SEGMENTS =           0.0000        DIVERSION SEGMENTS =           0.0000
           GW IRRIGATION =           0.0000             GW IRRIGATION =           0.0000
           SW IRRIGATION =     2280049.5000             SW IRRIGATION =           3.4696
        SYSTEM LOSSES GW =           0.0000          SYSTEM LOSSES GW =           0.0000
        SYSTEM LOSSES SW =           0.0000          SYSTEM LOSSES SW =           0.0000

               TOTAL OUT =     2280049.5000                 TOTAL OUT =           3.4696

                IN - OUT =         -45.2500                  IN - OUT =      -6.9380E-05

     PERCENT DISCREPANCY =          -0.00         PERCENT DISCREPANCY =          -0.00



1
  VOLUMETRIC BUDGET FOR ENTIRE MODEL AT END OF TIME STEP    9, STRESS PERIOD   5
  ------------------------------------------------------------------------------

     CUMULATIVE VOLUMES      L**3       RATES FOR THIS TIME STEP      L**3/T
     ------------------                 ------------------------

           IN:                                      IN:
           ---                                      ---
             STORAGE     =     5479590.0000               STORAGE     =           1.2704
       CONSTANT HEAD     =           0.0000         CONSTANT HEAD     =           0.0000
     HEAD DEP BOUNDS     =     2522924.2500       HEAD DEP BOUNDS     =           0.2879
      STREAM LEAKAGE     =   102327152.0000        STREAM LEAKAGE     =          11.2354
        UZF RECHARGE     =       73223.9531          UZF RECHARGE     =           0.0000
               GW ET     =           0.0000                 GW ET     =           0.0000
     SURFACE LEAKAGE     =           0.0000       SURFACE LEAKAGE     =           0.0000
           AG WELLS      =           0.0000             AG WELLS      =           0.0000

                TOTAL IN =   110402888.0000                  TOTAL IN =          12.7937

          OUT:                                     OUT:
          ----                                     ----
             STORAGE     =    18707930.0000               STORAGE     =           1.4201
       CONSTANT HEAD     =           0.0000         CONSTANT HEAD     =           0.0000
     HEAD DEP BOUNDS     =     2526214.7500       HEAD DEP BOUNDS     =           0.2892
      STREAM LEAKAGE     =    89171312.0000        STREAM LEAKAGE     =          11.0826
        UZF RECHARGE     =           0.0000          UZF RECHARGE     =           0.0000
               GW ET     =           0.0000                 GW ET     =           0.0000
     SURFACE LEAKAGE     =           0.0000       SURFACE LEAKAGE     =           0.0000
           AG WELLS      =           0.0000             AG WELLS      =           0.0000

               TOTAL OUT =   110405456.0000                 TOTAL OUT =          12.7919

                IN - OUT =       -2568.0000                  IN - OUT =       1.7872E-03

     PERCENT DISCREPANCY =          -0.00         PERCENT DISCREPANCY =           0.01






         TIME SUMMARY AT END OF TIME STEP    9 IN STRESS PERIOD    5
                    SECONDS     MINUTES      HOURS       DAYS        YEARS
                    -----------------------------------------------------------
   TIME STEP LENGTH  87667.      1461.1      24.352      1.0147     2.77799E-03
 STRESS PERIOD TIME 7.89000E+05  13150.      219.17      9.1319     2.50019E-02
         TOTAL TIME 8.76540E+06 1.46090E+05  2434.8      101.45     0.27776    
1
 
 SOLVING FOR HEAD 
                                                   Max.-Head-Change                         Max.-Flux-Residual
  Residual-Control   Outer-Iter.   Inner-Iter.     Column Row Layer    Maximum-Head-Change  Column Row Layer    Maximum-Flux-Residual          L2-NORM 
          0                 1           2             2   13     1      -0.2457032022E-02       2   13    1        -0.1378950077E+00      0.3487430589E+00
          0                 2           2             4   13     1      -0.5035872038E-03       4   13    1        -0.2885490044E-01      0.5500975791E-01
          0                 3           2             4   13     1      -0.2993966926E-03       4   13    1        -0.1712089917E-01      0.3074538356E-01
          0                 4           2             4   13     1      -0.1450315104E-03       4   13    1        -0.8295575200E-02      0.1473652039E-01
          0                 5           1             4   13     1      -0.7343870603E-04       4   13    1        -0.4200181611E-02      0.7480082598E-02

    ------------------------------------------------
       NWT REQUIRED            5 OUTER ITERATIONS 
       AND A TOTAL OF          9 INNER ITERATIONS.
    ------------------------------------------------

 OUTPUT CONTROL FOR STRESS PERIOD    5   TIME STEP   10
    PRINT BUDGET
    SAVE BUDGET
 UBDSV1 SAVING "         STORAGE" ON UNIT 102 AT TIME STEP 10, STRESS PERIOD   5
 UBDSV2 SAVING "   CONSTANT HEAD" ON UNIT 102 AT TIME STEP 10, STRESS PERIOD   5
 UBDSV1 SAVING "FLOW RIGHT FACE " ON UNIT 102 AT TIME STEP 10, STRESS PERIOD   5
 UBDSV1 SAVING "FLOW FRONT FACE " ON UNIT 102 AT TIME STEP 10, STRESS PERIOD   5

  HEAD DEP BOUNDS   PERIOD    5   STEP    10
 BOUNDARY      1   LAYER   1   ROW    13   COL     1   RATE   -0.289128    
 BOUNDARY      2   LAYER   1   ROW    14   COL     9   RATE    0.287890    



 STREAM LISTING     PERIOD      5   STEP       10

 LAYER ROW COL. STREAM  RCH.  FLOW INTO     FLOW TO   FLOW OUT OF   OVRLND.     DIRECT     STREAM       STREAM     STREAM     STREAM   STREAMBED  STREAMBED
                SEG.NO.  NO.  STRM. RCH.    AQUIFER    STRM. RCH.    RUNOFF     PRECIP       ET          HEAD       DEPTH      WIDTH   CONDCTNC.   GRADIENT

   1    1    1     1     1    1.0500E+01  1.5271E-01   1.0347E+01  0.000E+00  0.000E+00  0.000E+00  1.09396E+03  9.109E-01  8.677E+00  3.905E-02  1.304E+00
   1    2    2     1     2    1.0347E+01  2.3505E-01   1.0112E+01  0.000E+00  0.000E+00  0.000E+00  1.08896E+03  9.059E-01  8.597E+00  6.018E-02  1.302E+00
   1    3    3     1     3    1.0112E+01  1.9904E-01   9.9132E+00  0.000E+00  0.000E+00  0.000E+00  1.08332E+03  9.003E-01  8.505E+00  5.103E-02  1.300E+00
   1    3    4     1     4    9.9132E+00  1.8195E-01   9.7313E+00  0.000E+00  0.000E+00  0.000E+00  1.07830E+03  8.947E-01  8.417E+00  4.672E-02  1.298E+00
   1    4    5     2     1    7.7313E+00  2.8007E-01   7.4512E+00  0.000E+00  0.000E+00  0.000E+00  1.07252E+03  5.907E-01  1.200E+01  7.800E-02  1.197E+00
   1    5    6     2     2    7.4512E+00  2.1474E-01   7.2365E+00  0.000E+00  0.000E+00  0.000E+00  1.06709E+03  5.790E-01  1.200E+01  6.000E-02  1.193E+00
   1    6    6     2     3    7.2365E+00  2.1413E-01   7.0224E+00  0.000E+00  0.000E+00  0.000E+00  1.06236E+03  5.688E-01  1.200E+01  6.000E-02  1.190E+00
   1    7    6     2     4    7.0224E+00  2.1351E-01   6.8088E+00  0.000E+00  0.000E+00  0.000E+00  1.05763E+03  5.585E-01  1.200E+01  6.000E-02  1.186E+00
   1    8    6     2     5    6.8088E+00  2.1289E-01   6.5960E+00  0.000E+00  0.000E+00  0.000E+00  1.05291E+03  5.481E-01  1.200E+01  6.000E-02  1.183E+00
   1    3    5     3     1    2.0000E+00  2.8252E-01   1.7175E+00  0.000E+00  0.000E+00  0.000E+00  1.07555E+03  1.909E+00  9.636E+00  7.227E-02  1.955E+00
   1    3    6     3     2    1.7175E+00  2.4905E-01   1.4684E+00  0.000E+00  0.000E+00  0.000E+00  1.07264E+03  1.727E+00  8.909E+00  6.682E-02  1.864E+00
   1    3    7     3     3    1.4684E+00  1.9718E-01   1.2712E+00  0.000E+00  0.000E+00  0.000E+00  1.06987E+03  1.555E+00  8.218E+00  5.547E-02  1.777E+00
   1    4    8     3     4    1.2712E+00  2.2567E-01   1.0456E+00  0.000E+00  0.000E+00  0.000E+00  1.06682E+03  1.364E+00  7.455E+00  6.709E-02  1.682E+00
   1    5    8     3     5    1.0456E+00  1.5790E-01   8.8768E-01  0.000E+00  0.000E+00  0.000E+00  1.06362E+03  1.164E+00  6.655E+00  4.991E-02  1.582E+00
   1    6    8     3     6    8.8768E-01  5.5980E-02   8.3170E-01  0.000E+00  0.000E+00  0.000E+00  1.06158E+03  1.036E+00  6.145E+00  1.844E-02  1.518E+00
   1    5   10     4     1    1.0000E+01  9.0919E-02   9.9091E+00  0.000E+00  0.000E+00  0.000E+00  1.07836E+03  6.368E-01  1.000E+01  2.500E-02  1.212E+00
   1    5    9     4     2    9.9091E+00  1.8158E-01   9.7275E+00  0.000E+00  0.000E+00  0.000E+00  1.07154E+03  6.315E-01  1.000E+01  5.000E-02  1.211E+00
   1    6    8     4     3    9.7275E+00  1.2689E-01   9.6006E+00  0.000E+00  0.000E+00  0.000E+00  1.06381E+03  6.256E-01  1.000E+01  3.500E-02  1.209E+00
   1    6    8     5     1    1.0432E+01  2.2686E-01   1.0205E+01  0.000E+00  0.000E+00  0.000E+00  1.05868E+03  6.790E-01  1.542E+01  6.166E-02  1.226E+00
   1    7    7     5     2    1.0205E+01  2.7894E-01   9.9265E+00  0.000E+00  0.000E+00  0.000E+00  1.05417E+03  6.732E-01  1.519E+01  7.594E-02  1.224E+00
   1    8    7     5     3    9.9265E+00  1.9221E-01   9.7343E+00  0.000E+00  0.000E+00  0.000E+00  1.04992E+03  6.676E-01  1.497E+01  5.241E-02  1.223E+00
   1    8    6     5     4    9.7343E+00  1.3577E-01   9.5985E+00  0.000E+00  0.000E+00  0.000E+00  1.04691E+03  6.637E-01  1.482E+01  3.706E-02  1.221E+00
   1    9    6     6     1    1.2722E+01  2.2885E-01   1.2493E+01  0.000E+00  0.000E+00  0.000E+00  1.04354E+03  8.141E-01  1.200E+01  6.000E-02  1.271E+00
   1   10    7     6     2    1.2493E+01  2.2832E-01   1.2265E+01  0.000E+00  0.000E+00  0.000E+00  1.03899E+03  8.053E-01  1.200E+01  6.000E-02  1.268E+00
   1   11    7     6     3    1.2265E+01  2.2779E-01   1.2037E+01  0.000E+00  0.000E+00  0.000E+00  1.03443E+03  7.964E-01  1.200E+01  6.000E-02  1.265E+00
   1   12    7     6     4    1.2037E+01  2.2725E-01   1.1810E+01  0.000E+00  0.000E+00  0.000E+00  1.02988E+03  7.875E-01  1.200E+01  6.000E-02  1.263E+00
   1   13    7     6     5    1.1810E+01 -3.8720E-02   1.1849E+01  0.000E+00  0.000E+00  0.000E+00  1.02669E+03  7.838E-01  1.200E+01  2.400E-01 -5.378E-02
   1   14    9     7     1    1.5000E+02  1.3671E+00   1.4863E+02  0.000E+00  0.000E+00  0.000E+00  1.03987E+03  2.288E+00  5.529E+01  5.593E-01  8.148E-01
   1   13    8     7     2    1.4863E+02  1.9167E+00   1.4672E+02  0.000E+00  0.000E+00  0.000E+00  1.03478E+03  2.279E+00  5.526E+01  6.148E-01  1.039E+00
   1   13    7     7     3    1.4672E+02  1.5829E+00   1.4513E+02  0.000E+00  0.000E+00  0.000E+00  1.02969E+03  2.270E+00  5.521E+01  5.584E-01  9.449E-01
   1   13    6     8     1    1.5698E+02  9.4856E-01   1.5603E+02  0.000E+00  0.000E+00  0.000E+00  1.02474E+03  2.863E+00  4.151E+01  4.230E-01  7.475E-01
   1   13    5     8     2    1.5603E+02  2.0316E-01   1.5583E+02  0.000E+00  0.000E+00  0.000E+00  1.01848E+03  2.859E+00  4.145E+01  4.224E-01  1.603E-01
   1   13    4     8     3    1.5583E+02 -2.4434E+00   1.5827E+02  0.000E+00  0.000E+00  0.000E+00  1.01224E+03  2.867E+00  4.157E+01  4.236E+00 -1.923E-01
   1   13    3     8     4    1.5827E+02 -3.7217E+00   1.6200E+02  0.000E+00  0.000E+00  0.000E+00  1.00601E+03  2.888E+00  4.187E+01  4.267E+00 -2.908E-01
   1   13    2     8     5    1.6200E+02 -2.7381E+00   1.6473E+02  0.000E+00  0.000E+00  0.000E+00  9.99784E+02  2.909E+00  4.218E+01  4.299E+00 -2.123E-01
   1   13    1     8     6    1.6473E+02 -2.0964E+00   1.6683E+02  0.000E+00  0.000E+00  0.000E+00  9.94800E+02  2.925E+00  4.242E+01  2.593E+00 -2.695E-01
   1    8    6     9     1    3.4723E+00  0.0000E+00   3.4723E+00  0.000E+00  0.000E+00  0.000E+00  1.07993E+03  1.178E+00  4.000E+00  0.000E+00  1.393E+00
   1    8    5     9     2    3.4723E+00  0.0000E+00   3.4723E+00  0.000E+00  0.000E+00  0.000E+00  1.07943E+03  1.178E+00  4.000E+00  0.000E+00  1.393E+00



 UBDSV3 SAVING "           GW ET" ON UNIT  61 AT TIME STEP 10, STRESS PERIOD   5
 UBDSV3 SAVING "    UZF RECHARGE" ON UNIT  61 AT TIME STEP 10, STRESS PERIOD   5
 UBDSV3 SAVING " SURFACE LEAKAGE" ON UNIT  61 AT TIME STEP 10, STRESS PERIOD   5
 UBDSV3 SAVING "       HORT+DUNN" ON UNIT  61 AT TIME STEP 10, STRESS PERIOD   5
 UBDSV3 SAVING "  STORAGE CHANGE" ON UNIT  61 AT TIME STEP 10, STRESS PERIOD   5


UNSATURATED ZONE PACKAGE VOLUMETRIC BUDGET FOR  TIME STEP    10 STRESS PERIOD    5
  ------------------------------------------------------------------------------



     CUMULATIVE VOLUMES      L**3       RATES FOR THIS TIME STEP      L**3/T
     ------------------                 ------------------------

           IN:                                      IN:
           ---                                      ---
        INFILTRATION =    41296768.9182          INFILTRATION =           7.8799

          OUT:                                     OUT:
          ----                                     ----
              UZF ET =    21997826.6631                UZF ET =          10.2367
        UZF RECHARGE =       73224.0000          UZF RECHARGE =       0.0000E+00

            IN - OUT =    19225718.2551              IN - OUT =          -2.3568

          STORAGE:                                 STORAGE:
          --------                                 --------
      STORAGE CHANGE =    19225717.9170        STORAGE CHANGE =          -2.3568

 PERCENT DISCREPANCY IS DIFFERENCE BETWEEN IN-OUT MINUS CHANGE IN STORAGE
 DIVIDED BY THE AVERAGE OF IN AND OUT TIMES 100

 PERCENT DISCREPANCY =           0.00     PERCENT DISCREPANCY =           0.00






 

            AG WELLS      PERIOD    5   STEP  10
 AG WELL      1   LAYER   1   ROW     6   COL     4   RATE     0.00000    
 AG WELL      2   LAYER   1   ROW     6   COL     5   RATE     0.00000    
 AG WELL      3   LAYER   1   ROW     7   COL     4   RATE     0.00000    
 AG WELL      4   LAYER   1   ROW     7   COL     5   RATE     0.00000    
 AG WELL      5   LAYER   1   ROW     8   COL     4   RATE     0.00000    
 AG WELL      6   LAYER   1   ROW     8   COL     5   RATE     0.00000    
 
 

   DIVERSION SEGMENTS     PERIOD    5   STEP  10
 SEGMENT      9   RATE     3.47233    
 
 

        SW IRRIGATION     PERIOD    5   STEP  10
 SEGMENT      9   ROW     6   COL     4   RATE    0.578733    
 SEGMENT      9   ROW     6   COL     5   RATE    0.578733    
 SEGMENT      9   ROW     7   COL     4   RATE    0.578733    
 SEGMENT      9   ROW     7   COL     5   RATE    0.578733    
 SEGMENT      9   ROW     8   COL     4   RATE    0.578733    
 SEGMENT      9   ROW     8   COL     5   RATE    0.578733    
 
 

        GW IRRIGATION     PERIOD    5   STEP  10
 AG WELL      1   ROW     6   COL     4   RATE     0.00000    
 AG WELL      2   ROW     6   COL     5   RATE     0.00000    
 AG WELL      3   ROW     7   COL     4   RATE     0.00000    
 AG WELL      4   ROW     7   COL     5   RATE     0.00000    
 AG WELL      5   ROW     8   COL     4   RATE     0.00000    
 AG WELL      6   ROW     8   COL     5   RATE     0.00000    
 
1
  VOLUMETRIC BUDGET FOR AGRICULTURAL FIELDS AT  END OF TIME STEP   10, STRESS PERIOD   5
  ------------------------------------------------------------------------------

     CUMULATIVE VOLUMES      L**3       RATES FOR THIS TIME STEP      L**3/T
     ------------------                 ------------------------

           IN:                                      IN:
           ---                                      ---
               AG WELLS  =           0.0000                 AG WELLS  =           0.0000
      DIVERSION SEGMENTS =     2584411.5000        DIVERSION SEGMENTS =           3.4723
           GW IRRIGATION =           0.0000             GW IRRIGATION =           0.0000
           SW IRRIGATION =           0.0000             SW IRRIGATION =           0.0000
        SYSTEM LOSSES GW =           0.0000          SYSTEM LOSSES GW =           0.0000
        SYSTEM LOSSES SW =           0.0000          SYSTEM LOSSES SW =           0.0000

                TOTAL IN =     2584411.5000                  TOTAL IN =           3.4723

          OUT:                                     OUT:
          ----                                     ----
               AG WELLS  =           0.0000                 AG WELLS  =           0.0000
      DIVERSION SEGMENTS =           0.0000        DIVERSION SEGMENTS =           0.0000
           GW IRRIGATION =           0.0000             GW IRRIGATION =           0.0000
           SW IRRIGATION =     2584463.0000             SW IRRIGATION =           3.4724
        SYSTEM LOSSES GW =           0.0000          SYSTEM LOSSES GW =           0.0000
        SYSTEM LOSSES SW =           0.0000          SYSTEM LOSSES SW =           0.0000

               TOTAL OUT =     2584463.0000                 TOTAL OUT =           3.4724

                IN - OUT =         -51.5000                  IN - OUT =      -6.9618E-05

     PERCENT DISCREPANCY =          -0.00         PERCENT DISCREPANCY =          -0.00



1
  VOLUMETRIC BUDGET FOR ENTIRE MODEL AT END OF TIME STEP   10, STRESS PERIOD   5
  ------------------------------------------------------------------------------

     CUMULATIVE VOLUMES      L**3       RATES FOR THIS TIME STEP      L**3/T
     ------------------                 ------------------------

           IN:                                      IN:
           ---                                      ---
             STORAGE     =     5586388.5000               STORAGE     =           1.2182
       CONSTANT HEAD     =           0.0000         CONSTANT HEAD     =           0.0000
     HEAD DEP BOUNDS     =     2548162.5000       HEAD DEP BOUNDS     =           0.2879
      STREAM LEAKAGE     =   103312192.0000        STREAM LEAKAGE     =          11.2362
        UZF RECHARGE     =       73223.9531          UZF RECHARGE     =           0.0000
               GW ET     =           0.0000                 GW ET     =           0.0000
     SURFACE LEAKAGE     =           0.0000       SURFACE LEAKAGE     =           0.0000
           AG WELLS      =           0.0000             AG WELLS      =           0.0000

                TOTAL IN =   111519968.0000                  TOTAL IN =          12.7423

          OUT:                                     OUT:
          ----                                     ----
             STORAGE     =    18831804.0000               STORAGE     =           1.4130
       CONSTANT HEAD     =           0.0000         CONSTANT HEAD     =           0.0000
     HEAD DEP BOUNDS     =     2551561.7500       HEAD DEP BOUNDS     =           0.2891
      STREAM LEAKAGE     =    90139008.0000        STREAM LEAKAGE     =          11.0384
        UZF RECHARGE     =           0.0000          UZF RECHARGE     =           0.0000
               GW ET     =           0.0000                 GW ET     =           0.0000
     SURFACE LEAKAGE     =           0.0000       SURFACE LEAKAGE     =           0.0000
           AG WELLS      =           0.0000             AG WELLS      =           0.0000

               TOTAL OUT =   111522376.0000                 TOTAL OUT =          12.7405

                IN - OUT =       -2408.0000                  IN - OUT =       1.7967E-03

     PERCENT DISCREPANCY =          -0.00         PERCENT DISCREPANCY =           0.01






         TIME SUMMARY AT END OF TIME STEP   10 IN STRESS PERIOD    5
                    SECONDS     MINUTES      HOURS       DAYS        YEARS
                    -----------------------------------------------------------
   TIME STEP LENGTH  87667.      1461.1      24.352      1.0147     2.77799E-03
 STRESS PERIOD TIME 8.76667E+05  14611.      243.52      10.147     2.77799E-02
         TOTAL TIME 8.85306E+06 1.47551E+05  2459.2      102.47     0.28054    
1
 
 SOLVING FOR HEAD 
                                                   Max.-Head-Change                         Max.-Flux-Residual
  Residual-Control   Outer-Iter.   Inner-Iter.     Column Row Layer    Maximum-Head-Change  Column Row Layer    Maximum-Flux-Residual          L2-NORM 
          0                 1           2             2   13     1      -0.2190041455E-02       2   13    1        -0.1228844819E+00      0.3305868754E+00
          0                 2           2             4   13     1      -0.5334179416E-03       4   13    1        -0.3056761041E-01      0.5724614914E-01
          0                 3           2             4   13     1      -0.2976039030E-03       4   13    1        -0.1701770059E-01      0.3060945644E-01
          0                 4           2             4   13     1      -0.1434570034E-03       4   13    1        -0.8205428489E-02      0.1456704336E-01
          0                 5           1             4   13     1      -0.7279488381E-04       4   13    1        -0.4163297631E-02      0.7415199555E-02

    ------------------------------------------------
       NWT REQUIRED            5 OUTER ITERATIONS 
       AND A TOTAL OF          9 INNER ITERATIONS.
    ------------------------------------------------

 NO OUTPUT CONTROL FOR STRESS PERIOD    5   TIME STEP   11
 
 SOLVING FOR HEAD 
                                                   Max.-Head-Change                         Max.-Flux-Residual
  Residual-Control   Outer-Iter.   Inner-Iter.     Column Row Layer    Maximum-Head-Change  Column Row Layer    Maximum-Flux-Residual          L2-NORM 
          0                 1           2             2   13     1      -0.1942734019E-02       2   13    1        -0.1089817160E+00      0.3149777445E+00
          0                 2           2             4   13     1      -0.5606567276E-03       4   13    1        -0.3213094103E-01      0.5935867074E-01
          0                 3           2             4   13     1      -0.2932238040E-03       4   13    1        -0.1676665986E-01      0.3020373881E-01
          0                 4           2             4   13     1      -0.1457556713E-03       4   13    1        -0.8336935291E-02      0.1479458879E-01
          0                 5           1             4   13     1      -0.7322608501E-04       4   13    1        -0.4187949822E-02      0.7459957420E-02

    ------------------------------------------------
       NWT REQUIRED            5 OUTER ITERATIONS 
       AND A TOTAL OF          9 INNER ITERATIONS.
    ------------------------------------------------

 NO OUTPUT CONTROL FOR STRESS PERIOD    5   TIME STEP   12
 
 SOLVING FOR HEAD 
                                                   Max.-Head-Change                         Max.-Flux-Residual
  Residual-Control   Outer-Iter.   Inner-Iter.     Column Row Layer    Maximum-Head-Change  Column Row Layer    Maximum-Flux-Residual          L2-NORM 
          0                 1           2             2   13     1      -0.1713332534E-02       2   13    1        -0.9608653582E-01      0.3016559002E+00
          0                 2           2             4   13     1      -0.5853466484E-03       4   13    1        -0.3354740200E-01      0.6133522576E-01
          0                 3           2             4   13     1      -0.2919481891E-03       4   13    1        -0.1669337008E-01      0.3009931193E-01
          0                 4           2             4   13     1      -0.1462849898E-03       4   13    1        -0.8367202004E-02      0.1484601737E-01
          0                 5           1             4   13     1      -0.7335460932E-04       4   13    1        -0.4195292810E-02      0.7472242480E-02

    ------------------------------------------------
       NWT REQUIRED            5 OUTER ITERATIONS 
       AND A TOTAL OF          9 INNER ITERATIONS.
    ------------------------------------------------

 NO OUTPUT CONTROL FOR STRESS PERIOD    5   TIME STEP   13
 
 SOLVING FOR HEAD 
                                                   Max.-Head-Change                         Max.-Flux-Residual
  Residual-Control   Outer-Iter.   Inner-Iter.     Column Row Layer    Maximum-Head-Change  Column Row Layer    Maximum-Flux-Residual          L2-NORM 
          0                 1           2             2   13     1      -0.1500622912E-02       2   13    1        -0.8413066187E-01      0.2903822829E+00
          0                 2           2             4   13     1      -0.6063488980E-03       4   13    1        -0.3475209702E-01      0.6304805653E-01
          0                 3           2             4   13     1      -0.2914961487E-03       4   13    1        -0.1666716672E-01      0.3007855314E-01
          0                 4           2             4   13     1      -0.1470237286E-03       4   13    1        -0.8409513905E-02      0.1491495656E-01
          0                 5           1             4   13     1      -0.7335511942E-04       4   13    1        -0.4195316284E-02      0.7472605230E-02

    ------------------------------------------------
       NWT REQUIRED            5 OUTER ITERATIONS 
       AND A TOTAL OF          9 INNER ITERATIONS.
    ------------------------------------------------

 NO OUTPUT CONTROL FOR STRESS PERIOD    5   TIME STEP   14
 
 SOLVING FOR HEAD 
                                                   Max.-Head-Change                         Max.-Flux-Residual
  Residual-Control   Outer-Iter.   Inner-Iter.     Column Row Layer    Maximum-Head-Change  Column Row Layer    Maximum-Flux-Residual          L2-NORM 
          0                 1           2             3    2     1       0.1448713970E-02       1   13    1        -0.7650729396E-01      0.2809401277E+00
          0                 2           2             4   13     1      -0.6275860336E-03       4   13    1        -0.3596950067E-01      0.6484309954E-01
          0                 3           2             4   13     1      -0.2898503866E-03       4   13    1        -0.1657277818E-01      0.2992887679E-01
          0                 4           2             4   13     1      -0.1473027860E-03       4   13    1        -0.8425485238E-02      0.1494243990E-01
          0                 5           1             4   13     1      -0.7332557730E-04       4   13    1        -0.4193618563E-02      0.7469768308E-02

    ------------------------------------------------
       NWT REQUIRED            5 OUTER ITERATIONS 
       AND A TOTAL OF          9 INNER ITERATIONS.
    ------------------------------------------------

 NO OUTPUT CONTROL FOR STRESS PERIOD    5   TIME STEP   15
 
 SOLVING FOR HEAD 
                                                   Max.-Head-Change                         Max.-Flux-Residual
  Residual-Control   Outer-Iter.   Inner-Iter.     Column Row Layer    Maximum-Head-Change  Column Row Layer    Maximum-Flux-Residual          L2-NORM 
          0                 1           2             3    2     1       0.1441568235E-02       3    2    1         0.7516341335E-01      0.2731053695E+00
          0                 2           2             4   13     1      -0.6466318502E-03       4   13    1        -0.3706086530E-01      0.6649318197E-01
          0                 3           2             4   13     1      -0.2862535381E-03       4   13    1        -0.1636685523E-01      0.2957948412E-01
          0                 4           2             4   13     1      -0.1466142456E-03       4   13    1        -0.8386125321E-02      0.1486971709E-01
          0                 5           1             4   13     1      -0.7350809396E-04       4   13    1        -0.4204063150E-02      0.7487714749E-02

    ------------------------------------------------
       NWT REQUIRED            5 OUTER ITERATIONS 
       AND A TOTAL OF          9 INNER ITERATIONS.
    ------------------------------------------------

 NO OUTPUT CONTROL FOR STRESS PERIOD    5   TIME STEP   16
 
 SOLVING FOR HEAD 
                                                   Max.-Head-Change                         Max.-Flux-Residual
  Residual-Control   Outer-Iter.   Inner-Iter.     Column Row Layer    Maximum-Head-Change  Column Row Layer    Maximum-Flux-Residual          L2-NORM 
          0                 1           2             3    2     1       0.1434539813E-02       3    2    1         0.7479291257E-01      0.2666959317E+00
          0                 2           2             4   13     1      -0.6610656997E-03       4   13    1        -0.3788792371E-01      0.6775421210E-01
          0                 3           2             4   13     1      -0.2867130417E-03       4   13    1        -0.1639300643E-01      0.2963517283E-01
          0                 4           2             4   13     1      -0.1474378285E-03       4   13    1        -0.8433226587E-02      0.1495228799E-01
          0                 5           1             4   13     1      -0.7360116403E-04       4   13    1        -0.4209378633E-02      0.7497698793E-02

    ------------------------------------------------
       NWT REQUIRED            5 OUTER ITERATIONS 
       AND A TOTAL OF          9 INNER ITERATIONS.
    ------------------------------------------------

 NO OUTPUT CONTROL FOR STRESS PERIOD    5   TIME STEP   17
 
 SOLVING FOR HEAD 
                                                   Max.-Head-Change                         Max.-Flux-Residual
  Residual-Control   Outer-Iter.   Inner-Iter.     Column Row Layer    Maximum-Head-Change  Column Row Layer    Maximum-Flux-Residual          L2-NORM 
          0                 1           2             3    2     1       0.1427541718E-02       3    2    1         0.7442407479E-01      0.2615015592E+00
          0                 2           2             4   13     1      -0.6769698055E-03       4   13    1        -0.3879853804E-01      0.6919256352E-01
          0                 3           2             4   13     1      -0.2843971163E-03       4   13    1        -0.1626045021E-01      0.2940694807E-01
          0                 4           2             4   13     1      -0.1482513938E-03       4   13    1        -0.8479759813E-02      0.1503411488E-01
          0                 5           1             4   13     1      -0.7380690513E-04       4   13    1        -0.4221139202E-02      0.7519127639E-02

    ------------------------------------------------
       NWT REQUIRED            5 OUTER ITERATIONS 
       AND A TOTAL OF          9 INNER ITERATIONS.
    ------------------------------------------------

 NO OUTPUT CONTROL FOR STRESS PERIOD    5   TIME STEP   18
 
 SOLVING FOR HEAD 
                                                   Max.-Head-Change                         Max.-Flux-Residual
  Residual-Control   Outer-Iter.   Inner-Iter.     Column Row Layer    Maximum-Head-Change  Column Row Layer    Maximum-Flux-Residual          L2-NORM 
          0                 1           2             3    2     1       0.1420741863E-02       3    2    1         0.7406564863E-01      0.2573478375E+00
          0                 2           2             4   13     1      -0.6914674500E-03       4   13    1        -0.3962835293E-01      0.7052443304E-01
          0                 3           2             4   13     1      -0.2832471245E-03       4   13    1        -0.1619458173E-01      0.2929691688E-01
          0                 4           2             4   13     1      -0.1484785721E-03       4   13    1        -0.8492774600E-02      0.1505520708E-01
          0                 5           1             4   13     1      -0.7358581347E-04       4   13    1        -0.4208486998E-02      0.7496737552E-02

    ------------------------------------------------
       NWT REQUIRED            5 OUTER ITERATIONS 
       AND A TOTAL OF          9 INNER ITERATIONS.
    ------------------------------------------------

 NO OUTPUT CONTROL FOR STRESS PERIOD    5   TIME STEP   19
 
 SOLVING FOR HEAD 
                                                   Max.-Head-Change                         Max.-Flux-Residual
  Residual-Control   Outer-Iter.   Inner-Iter.     Column Row Layer    Maximum-Head-Change  Column Row Layer    Maximum-Flux-Residual          L2-NORM 
          0                 1           2             3    2     1       0.1414053562E-02       3    2    1         0.7371308149E-01      0.2540712252E+00
          0                 2           2             4   13     1      -0.7046170711E-03       4   13    1        -0.4038067902E-01      0.7175851999E-01
          0                 3           2             4   13     1      -0.2822341610E-03       4   13    1        -0.1613662616E-01      0.2919579526E-01
          0                 4           2             4   13     1      -0.1486601802E-03       4   13    1        -0.8503128971E-02      0.1507470562E-01
          0                 5           1             4   13     1      -0.7361056833E-04       4   13    1        -0.4209906809E-02      0.7499102919E-02

    ------------------------------------------------
       NWT REQUIRED            5 OUTER ITERATIONS 
       AND A TOTAL OF          9 INNER ITERATIONS.
    ------------------------------------------------

 NO OUTPUT CONTROL FOR STRESS PERIOD    5   TIME STEP   20
 
 SOLVING FOR HEAD 
                                                   Max.-Head-Change                         Max.-Flux-Residual
  Residual-Control   Outer-Iter.   Inner-Iter.     Column Row Layer    Maximum-Head-Change  Column Row Layer    Maximum-Flux-Residual          L2-NORM 
          0                 1           2             3    2     1       0.1407389620E-02       3    2    1         0.7336187860E-01      0.2515599270E+00
          0                 2           2             4   13     1      -0.6962769126E-03       4   13    1        -0.4102015477E-01      0.7282810122E-01
          0                 3           2             4   13     1      -0.2944092588E-03       4   13    1        -0.1731829908E-01      0.2978561227E-01
          0                 4           2             4   13     1      -0.1515839055E-03       4   13    1        -0.8917595015E-02      0.1532403050E-01
          0                 5           1             4   13     1      -0.7528047129E-04       4   13    1        -0.4428387370E-02      0.7613250130E-02

    ------------------------------------------------
       NWT REQUIRED            5 OUTER ITERATIONS 
       AND A TOTAL OF          9 INNER ITERATIONS.
    ------------------------------------------------

 NO OUTPUT CONTROL FOR STRESS PERIOD    5   TIME STEP   21
 
 SOLVING FOR HEAD 
                                                   Max.-Head-Change                         Max.-Flux-Residual
  Residual-Control   Outer-Iter.   Inner-Iter.     Column Row Layer    Maximum-Head-Change  Column Row Layer    Maximum-Flux-Residual          L2-NORM 
          0                 1           2             3    2     1       0.1400917295E-02       3    2    1         0.7302077816E-01      0.2496676498E+00
          0                 2           2             4   13     1      -0.7053052017E-03       4   13    1        -0.4155068034E-01      0.7373463938E-01
          0                 3           2             4   13     1      -0.2936256478E-03       4   13    1        -0.1727242156E-01      0.2968329482E-01
          0                 4           2             4   13     1      -0.1517548991E-03       4   13    1        -0.8927555405E-02      0.1534855031E-01
          0                 5           1             4   13     1      -0.7543323167E-04       4   13    1        -0.4437469640E-02      0.7621987937E-02

    ------------------------------------------------
       NWT REQUIRED            5 OUTER ITERATIONS 
       AND A TOTAL OF          9 INNER ITERATIONS.
    ------------------------------------------------

 NO OUTPUT CONTROL FOR STRESS PERIOD    5   TIME STEP   22
 
 SOLVING FOR HEAD 
                                                   Max.-Head-Change                         Max.-Flux-Residual
  Residual-Control   Outer-Iter.   Inner-Iter.     Column Row Layer    Maximum-Head-Change  Column Row Layer    Maximum-Flux-Residual          L2-NORM 
          0                 1           2             3    2     1       0.1394466310E-02       3    2    1         0.7268077334E-01      0.2482916395E+00
          0                 2           2             4   13     1      -0.7155854453E-03       4   13    1        -0.4215459297E-01      0.7478076179E-01
          0                 3           2             4   13     1      -0.2933269755E-03       4   13    1        -0.1725509958E-01      0.2962642088E-01
          0                 4           2             4   13     1      -0.1513215523E-03       4   13    1        -0.8902020951E-02      0.1530832174E-01
          0                 5           1             4   13     1      -0.7564854130E-04       4   13    1        -0.4450093000E-02      0.7647892231E-02

    ------------------------------------------------
       NWT REQUIRED            5 OUTER ITERATIONS 
       AND A TOTAL OF          9 INNER ITERATIONS.
    ------------------------------------------------

 NO OUTPUT CONTROL FOR STRESS PERIOD    5   TIME STEP   23
 
 SOLVING FOR HEAD 
                                                   Max.-Head-Change                         Max.-Flux-Residual
  Residual-Control   Outer-Iter.   Inner-Iter.     Column Row Layer    Maximum-Head-Change  Column Row Layer    Maximum-Flux-Residual          L2-NORM 
          0                 1           2             3    2     1       0.1388118480E-02       3    2    1         0.7234629480E-01      0.2473441310E+00
          0                 2           2             4   13     1      -0.7250930905E-03       4   13    1        -0.4271291310E-01      0.7576129035E-01
          0                 3           2             4   13     1      -0.2904373520E-03       4   13    1        -0.1707481326E-01      0.2980662622E-01
          0                 4           2             4   13     1      -0.1507535397E-03       4   13    1        -0.8865151163E-02      0.1541929119E-01
          0                 5           1             4   13     1      -0.7539477583E-04       4   13    1        -0.4433211975E-02      0.7715635214E-02

    ------------------------------------------------
       NWT REQUIRED            5 OUTER ITERATIONS 
       AND A TOTAL OF          9 INNER ITERATIONS.
    ------------------------------------------------

 NO OUTPUT CONTROL FOR STRESS PERIOD    5   TIME STEP   24
 
 SOLVING FOR HEAD 
                                                   Max.-Head-Change                         Max.-Flux-Residual
  Residual-Control   Outer-Iter.   Inner-Iter.     Column Row Layer    Maximum-Head-Change  Column Row Layer    Maximum-Flux-Residual          L2-NORM 
          0                 1           2             3    2     1       0.1381957730E-02       3    2    1         0.7202158470E-01      0.2467423586E+00
          0                 2           2             4   13     1      -0.7327697631E-03       4   13    1        -0.4316342958E-01      0.7657284170E-01
          0                 3           2             4   13     1      -0.2908785736E-03       4   13    1        -0.1710082661E-01      0.3042428812E-01
          0                 4           2             4   13     1      -0.1510585869E-03       4   13    1        -0.8883079040E-02      0.1564648628E-01
          0                 5           1             4   13     1      -0.7529659213E-04       4   13    1        -0.4427439891E-02      0.7814236735E-02

    ------------------------------------------------
       NWT REQUIRED            5 OUTER ITERATIONS 
       AND A TOTAL OF          9 INNER ITERATIONS.
    ------------------------------------------------

 NO OUTPUT CONTROL FOR STRESS PERIOD    5   TIME STEP   25
 
 SOLVING FOR HEAD 
                                                   Max.-Head-Change                         Max.-Flux-Residual
  Residual-Control   Outer-Iter.   Inner-Iter.     Column Row Layer    Maximum-Head-Change  Column Row Layer    Maximum-Flux-Residual          L2-NORM 
          0                 1           2             3    2     1       0.1375812049E-02       3    2    1         0.7169773470E-01      0.2464154425E+00
          0                 2           2             4   13     1      -0.7383974634E-03       4   13    1        -0.4349334455E-01      0.7719023341E-01
          0                 3           2             4   13     1      -0.2920487195E-03       4   13    1        -0.1716972305E-01      0.3053883970E-01
          0                 4           2             4   13     1      -0.1516775839E-03       4   13    1        -0.8919449961E-02      0.1571210054E-01
          0                 5           1             4   13     1      -0.7534632464E-04       4   13    1        -0.4430370494E-02      0.7819768157E-02

    ------------------------------------------------
       NWT REQUIRED            5 OUTER ITERATIONS 
       AND A TOTAL OF          9 INNER ITERATIONS.
    ------------------------------------------------

 NO OUTPUT CONTROL FOR STRESS PERIOD    5   TIME STEP   26
 
 SOLVING FOR HEAD 
                                                   Max.-Head-Change                         Max.-Flux-Residual
  Residual-Control   Outer-Iter.   Inner-Iter.     Column Row Layer    Maximum-Head-Change  Column Row Layer    Maximum-Flux-Residual          L2-NORM 
          0                 1           2             3    2     1       0.1369764133E-02       3    2    1         0.7137908596E-01      0.2462949717E+00
          0                 2           2             4   13     1      -0.7462183126E-03       4   13    1        -0.4395213232E-01      0.7802610486E-01
          0                 3           2             4   13     1      -0.2916583021E-03       4   13    1        -0.1714685423E-01      0.3049123151E-01
          0                 4           2             4   13     1      -0.1511486579E-03       4   13    1        -0.8888337475E-02      0.1565734313E-01
          0                 5           1             4   13     1      -0.7552328330E-04       4   13    1        -0.4440747624E-02      0.7840142629E-02

    ------------------------------------------------
       NWT REQUIRED            5 OUTER ITERATIONS 
       AND A TOTAL OF          9 INNER ITERATIONS.
    ------------------------------------------------

 NO OUTPUT CONTROL FOR STRESS PERIOD    5   TIME STEP   27
 
 SOLVING FOR HEAD 
                                                   Max.-Head-Change                         Max.-Flux-Residual
  Residual-Control   Outer-Iter.   Inner-Iter.     Column Row Layer    Maximum-Head-Change  Column Row Layer    Maximum-Flux-Residual          L2-NORM 
          0                 1           2             3    2     1       0.1363897223E-02       3    2    1         0.7106992628E-01      0.2463661964E+00
          0                 2           2             4   13     1      -0.7520807434E-03       4   13    1        -0.4429569470E-01      0.7867648814E-01
          0                 3           2             4   13     1      -0.2913744665E-03       4   13    1        -0.1713026095E-01      0.3045309111E-01
          0                 4           2             4   13     1      -0.1511993485E-03       4   13    1        -0.8891284439E-02      0.1566571502E-01
          0                 5           1             4   13     1      -0.7535103961E-04       4   13    1        -0.4430632025E-02      0.7819042693E-02

    ------------------------------------------------
       NWT REQUIRED            5 OUTER ITERATIONS 
       AND A TOTAL OF          9 INNER ITERATIONS.
    ------------------------------------------------

 NO OUTPUT CONTROL FOR STRESS PERIOD    5   TIME STEP   28
 
 SOLVING FOR HEAD 
                                                   Max.-Head-Change                         Max.-Flux-Residual
  Residual-Control   Outer-Iter.   Inner-Iter.     Column Row Layer    Maximum-Head-Change  Column Row Layer    Maximum-Flux-Residual          L2-NORM 
          0                 1           2             4   13     1       0.2836108544E-02       4   13    1         0.1630529209E+00      0.4021666588E+00
          0                 2           2             4   13     1      -0.9633298523E-03       4   13    1        -0.5676597970E-01      0.1062701959E+00
          0                 3           2             4   13     1      -0.2829558964E-03       4   13    1        -0.1664931344E-01      0.2914977533E-01
          0                 4           2             4   13     1      -0.1548491441E-03       4   13    1        -0.9113171771E-02      0.1567961086E-01
          0                 5           1             4   13     1      -0.7434750122E-04       4   13    1        -0.4375229930E-02      0.7539493685E-02

    ------------------------------------------------
       NWT REQUIRED            5 OUTER ITERATIONS 
       AND A TOTAL OF          9 INNER ITERATIONS.
    ------------------------------------------------

 NO OUTPUT CONTROL FOR STRESS PERIOD    5   TIME STEP   29
 
 SOLVING FOR HEAD 
                                                   Max.-Head-Change                         Max.-Flux-Residual
  Residual-Control   Outer-Iter.   Inner-Iter.     Column Row Layer    Maximum-Head-Change  Column Row Layer    Maximum-Flux-Residual          L2-NORM 
          0                 1           2             4   13     1       0.1095066357E-01       4   13    1         0.6295279663E+00      0.1184454994E+01
          0                 2           2             4   13     1      -0.1774578734E-02       4   13    1        -0.1048212580E+00      0.1834626636E+00
          0                 3           2             4   13     1      -0.2358769594E-03       4   13    1        -0.1391635747E-01      0.2485597425E-01
          0                 4           2             4   13     1      -0.1603202628E-03       4   13    1        -0.9462266861E-02      0.1625144062E-01
          0                 5           1             4   13     1      -0.7753401172E-04       4   13    1        -0.4575716185E-02      0.7887263001E-02

    ------------------------------------------------
       NWT REQUIRED            5 OUTER ITERATIONS 
       AND A TOTAL OF          9 INNER ITERATIONS.
    ------------------------------------------------

 NO OUTPUT CONTROL FOR STRESS PERIOD    5   TIME STEP   30



 STREAM LISTING     PERIOD      5   STEP       30

 LAYER ROW COL. STREAM  RCH.  FLOW INTO     FLOW TO   FLOW OUT OF   OVRLND.     DIRECT     STREAM       STREAM     STREAM     STREAM   STREAMBED  STREAMBED
                SEG.NO.  NO.  STRM. RCH.    AQUIFER    STRM. RCH.    RUNOFF     PRECIP       ET          HEAD       DEPTH      WIDTH   CONDCTNC.   GRADIENT

   1    1    1     1     1    3.7125E+01  2.9395E-01   3.6831E+01  0.000E+00  0.000E+00  0.000E+00  1.09436E+03  1.309E+00  1.516E+01  6.821E-02  1.436E+00
   1    2    2     1     2    3.6831E+01  4.5518E-01   3.6376E+01  0.000E+00  0.000E+00  0.000E+00  1.08936E+03  1.306E+00  1.510E+01  1.057E-01  1.435E+00
   1    3    3     1     3    3.6376E+01  3.8814E-01   3.5988E+01  0.000E+00  0.000E+00  0.000E+00  1.08372E+03  1.303E+00  1.503E+01  9.020E-02  1.434E+00
   1    3    4     1     4    3.5988E+01  3.5737E-01   3.5631E+01  0.000E+00  0.000E+00  0.000E+00  1.07871E+03  1.300E+00  1.497E+01  8.311E-02  1.433E+00
   1    4    5     2     1    3.3631E+01  3.4618E-01   3.3284E+01  0.000E+00  0.000E+00  0.000E+00  1.07337E+03  1.438E+00  1.200E+01  7.800E-02  1.479E+00
   1    5    6     2     2    3.3284E+01  2.6582E-01   3.3019E+01  0.000E+00  0.000E+00  0.000E+00  1.06794E+03  1.430E+00  1.200E+01  6.000E-02  1.477E+00
   1    6    6     2     3    3.3019E+01  2.6541E-01   3.2753E+01  0.000E+00  0.000E+00  0.000E+00  1.06322E+03  1.423E+00  1.200E+01  6.000E-02  1.474E+00
   1    7    6     2     4    3.2753E+01  2.6499E-01   3.2488E+01  0.000E+00  0.000E+00  0.000E+00  1.05849E+03  1.417E+00  1.200E+01  6.000E-02  1.472E+00
   1    8    6     2     5    3.2488E+01  2.6458E-01   3.2224E+01  0.000E+00  0.000E+00  0.000E+00  1.05377E+03  1.410E+00  1.200E+01  6.000E-02  1.470E+00
   1    3    5     3     1    2.0000E+00  2.8252E-01   1.7175E+00  0.000E+00  0.000E+00  0.000E+00  1.07555E+03  1.909E+00  9.636E+00  7.227E-02  1.955E+00
   1    3    6     3     2    1.7175E+00  2.4905E-01   1.4684E+00  0.000E+00  0.000E+00  0.000E+00  1.07264E+03  1.727E+00  8.909E+00  6.682E-02  1.864E+00
   1    3    7     3     3    1.4684E+00  1.9718E-01   1.2712E+00  0.000E+00  0.000E+00  0.000E+00  1.06987E+03  1.555E+00  8.218E+00  5.547E-02  1.777E+00
   1    4    8     3     4    1.2712E+00  2.2567E-01   1.0456E+00  0.000E+00  0.000E+00  0.000E+00  1.06682E+03  1.364E+00  7.455E+00  6.709E-02  1.682E+00
   1    5    8     3     5    1.0456E+00  1.5790E-01   8.8768E-01  0.000E+00  0.000E+00  0.000E+00  1.06362E+03  1.164E+00  6.655E+00  4.991E-02  1.582E+00
   1    6    8     3     6    8.8768E-01  5.5980E-02   8.3170E-01  0.000E+00  0.000E+00  0.000E+00  1.06158E+03  1.036E+00  6.145E+00  1.844E-02  1.518E+00
   1    5   10     4     1    1.0000E+01  9.0919E-02   9.9091E+00  0.000E+00  0.000E+00  0.000E+00  1.07836E+03  6.368E-01  1.000E+01  2.500E-02  1.212E+00
   1    5    9     4     2    9.9091E+00  1.8158E-01   9.7275E+00  0.000E+00  0.000E+00  0.000E+00  1.07154E+03  6.315E-01  1.000E+01  5.000E-02  1.211E+00
   1    6    8     4     3    9.7275E+00  1.2689E-01   9.6006E+00  0.000E+00  0.000E+00  0.000E+00  1.06381E+03  6.256E-01  1.000E+01  3.500E-02  1.209E+00
   1    6    8     5     1    1.0432E+01  2.2686E-01   1.0205E+01  0.000E+00  0.000E+00  0.000E+00  1.05868E+03  6.790E-01  1.542E+01  6.166E-02  1.226E+00
   1    7    7     5     2    1.0205E+01  2.7894E-01   9.9265E+00  0.000E+00  0.000E+00  0.000E+00  1.05417E+03  6.732E-01  1.519E+01  7.594E-02  1.224E+00
   1    8    7     5     3    9.9265E+00  1.9221E-01   9.7343E+00  0.000E+00  0.000E+00  0.000E+00  1.04992E+03  6.676E-01  1.497E+01  5.241E-02  1.223E+00
   1    8    6     5     4    9.7343E+00  1.3577E-01   9.5985E+00  0.000E+00  0.000E+00  0.000E+00  1.04691E+03  6.637E-01  1.482E+01  3.706E-02  1.221E+00
   1    9    6     6     1    3.8356E+01  2.7468E-01   3.8081E+01  0.000E+00  0.000E+00  0.000E+00  1.04431E+03  1.578E+00  1.200E+01  6.000E-02  1.526E+00
   1   10    7     6     2    3.8081E+01  2.7427E-01   3.7807E+01  0.000E+00  0.000E+00  0.000E+00  1.03975E+03  1.571E+00  1.200E+01  6.000E-02  1.524E+00
   1   11    7     6     3    3.7807E+01  2.7386E-01   3.7533E+01  0.000E+00  0.000E+00  0.000E+00  1.03520E+03  1.564E+00  1.200E+01  6.000E-02  1.521E+00
   1   12    7     6     4    3.7533E+01  2.7345E-01   3.7260E+01  0.000E+00  0.000E+00  0.000E+00  1.03065E+03  1.558E+00  1.200E+01  6.000E-02  1.519E+00
   1   13    7     6     5    3.7260E+01  1.4726E-02   3.7245E+01  0.000E+00  0.000E+00  0.000E+00  1.02746E+03  1.554E+00  1.200E+01  2.400E-02  2.045E-01
   1   14    9     7     1    1.5000E+02  1.3674E+00   1.4863E+02  0.000E+00  0.000E+00  0.000E+00  1.03987E+03  2.288E+00  5.529E+01  5.593E-01  8.150E-01
   1   13    8     7     2    1.4863E+02  1.9165E+00   1.4672E+02  0.000E+00  0.000E+00  0.000E+00  1.03478E+03  2.279E+00  5.526E+01  6.148E-01  1.039E+00
   1   13    7     7     3    1.4672E+02  1.5856E+00   1.4513E+02  0.000E+00  0.000E+00  0.000E+00  1.02969E+03  2.270E+00  5.521E+01  5.584E-01  9.465E-01
   1   13    6     8     1    1.8238E+02  1.0815E+00   1.8129E+02  0.000E+00  0.000E+00  0.000E+00  1.02490E+03  3.028E+00  4.391E+01  4.475E-01  8.057E-01
   1   13    5     8     2    1.8129E+02  2.9397E-01   1.8100E+02  0.000E+00  0.000E+00  0.000E+00  1.01865E+03  3.024E+00  4.385E+01  4.468E-01  2.193E-01
   1   13    4     8     3    1.8100E+02 -1.7857E+00   1.8279E+02  0.000E+00  0.000E+00  0.000E+00  1.01240E+03  3.029E+00  4.392E+01  4.475E+00 -1.330E-01
   1   13    3     8     4    1.8279E+02 -3.1348E+00   1.8592E+02  0.000E+00  0.000E+00  0.000E+00  1.00617E+03  3.044E+00  4.414E+01  4.498E+00 -2.323E-01
   1   13    2     8     5    1.8592E+02 -2.0921E+00   1.8801E+02  0.000E+00  0.000E+00  0.000E+00  9.99935E+02  3.060E+00  4.437E+01  4.522E+00 -1.542E-01
   1   13    1     8     6    1.8801E+02 -1.7336E+00   1.8975E+02  0.000E+00  0.000E+00  0.000E+00  9.94947E+02  3.072E+00  4.454E+01  2.723E+00 -2.122E-01
   1    8    6     9     1    3.4661E+00  0.0000E+00   3.4661E+00  0.000E+00  0.000E+00  0.000E+00  1.07993E+03  1.177E+00  4.000E+00  0.000E+00  1.392E+00
   1    8    5     9     2    3.4661E+00  0.0000E+00   3.4661E+00  0.000E+00  0.000E+00  0.000E+00  1.07943E+03  1.177E+00  4.000E+00  0.000E+00  1.392E+00





UNSATURATED ZONE PACKAGE VOLUMETRIC BUDGET FOR  TIME STEP    30 STRESS PERIOD    5
  ------------------------------------------------------------------------------



     CUMULATIVE VOLUMES      L**3       RATES FOR THIS TIME STEP      L**3/T
     ------------------                 ------------------------

           IN:                                      IN:
           ---                                      ---
        INFILTRATION =    55110183.4065          INFILTRATION =           7.8736

          OUT:                                     OUT:
          ----                                     ----
              UZF ET =    35676365.7451                UZF ET =           7.8017
        UZF RECHARGE =       73224.0000          UZF RECHARGE =       0.0000E+00

            IN - OUT =    19360593.6614              IN - OUT =       7.1970E-02

          STORAGE:                                 STORAGE:
          --------                                 --------
      STORAGE CHANGE =    19360593.2928        STORAGE CHANGE =       7.1970E-02

 PERCENT DISCREPANCY IS DIFFERENCE BETWEEN IN-OUT MINUS CHANGE IN STORAGE
 DIVIDED BY THE AVERAGE OF IN AND OUT TIMES 100

 PERCENT DISCREPANCY =           0.00     PERCENT DISCREPANCY =           0.00






1
  VOLUMETRIC BUDGET FOR AGRICULTURAL FIELDS AT  END OF TIME STEP   30, STRESS PERIOD   5
  ------------------------------------------------------------------------------

     CUMULATIVE VOLUMES      L**3       RATES FOR THIS TIME STEP      L**3/T
     ------------------                 ------------------------

           IN:                                      IN:
           ---                                      ---
               AG WELLS  =           0.0000                 AG WELLS  =           0.0000
      DIVERSION SEGMENTS =     8669889.0000        DIVERSION SEGMENTS =           3.4661
           GW IRRIGATION =           0.0000             GW IRRIGATION =           0.0000
           SW IRRIGATION =           0.0000             SW IRRIGATION =           0.0000
        SYSTEM LOSSES GW =           0.0000          SYSTEM LOSSES GW =           0.0000
        SYSTEM LOSSES SW =           0.0000          SYSTEM LOSSES SW =           0.0000

                TOTAL IN =     8669889.0000                  TOTAL IN =           3.4661

          OUT:                                     OUT:
          ----                                     ----
               AG WELLS  =           0.0000                 AG WELLS  =           0.0000
      DIVERSION SEGMENTS =           0.0000        DIVERSION SEGMENTS =           0.0000
           GW IRRIGATION =           0.0000             GW IRRIGATION =           0.0000
           SW IRRIGATION =     8670061.0000             SW IRRIGATION =           3.4661
        SYSTEM LOSSES GW =           0.0000          SYSTEM LOSSES GW =           0.0000
        SYSTEM LOSSES SW =           0.0000          SYSTEM LOSSES SW =           0.0000

               TOTAL OUT =     8670061.0000                 TOTAL OUT =           3.4661

                IN - OUT =        -172.0000                  IN - OUT =      -6.9141E-05

     PERCENT DISCREPANCY =          -0.00         PERCENT DISCREPANCY =          -0.00



1
  VOLUMETRIC BUDGET FOR ENTIRE MODEL AT END OF TIME STEP   30, STRESS PERIOD   5
  ------------------------------------------------------------------------------

     CUMULATIVE VOLUMES      L**3       RATES FOR THIS TIME STEP      L**3/T
     ------------------                 ------------------------

           IN:                                      IN:
           ---                                      ---
             STORAGE     =     7077961.0000               STORAGE     =           0.4121
       CONSTANT HEAD     =           0.0000         CONSTANT HEAD     =           0.0000
     HEAD DEP BOUNDS     =     3052947.5000       HEAD DEP BOUNDS     =           0.2879
      STREAM LEAKAGE     =   123183976.0000        STREAM LEAKAGE     =          12.6590
        UZF RECHARGE     =       73223.9531          UZF RECHARGE     =           0.0000
               GW ET     =           0.0000                 GW ET     =           0.0000
     SURFACE LEAKAGE     =           0.0000       SURFACE LEAKAGE     =           0.0000
           AG WELLS      =           0.0000             AG WELLS      =           0.0000

                TOTAL IN =   133388104.0000                  TOTAL IN =          13.3590

          OUT:                                     OUT:
          ----                                     ----
             STORAGE     =    21538156.0000               STORAGE     =           4.3233
       CONSTANT HEAD     =           0.0000         CONSTANT HEAD     =           0.0000
     HEAD DEP BOUNDS     =     3057278.7500       HEAD DEP BOUNDS     =           0.2882
      STREAM LEAKAGE     =   108792184.0000        STREAM LEAKAGE     =           8.7463
        UZF RECHARGE     =           0.0000          UZF RECHARGE     =           0.0000
               GW ET     =           0.0000                 GW ET     =           0.0000
     SURFACE LEAKAGE     =           0.0000       SURFACE LEAKAGE     =           0.0000
           AG WELLS      =           0.0000             AG WELLS      =           0.0000

               TOTAL OUT =   133387616.0000                 TOTAL OUT =          13.3577

                IN - OUT =         488.0000                  IN - OUT =       1.2655E-03

     PERCENT DISCREPANCY =           0.00         PERCENT DISCREPANCY =           0.01






         TIME SUMMARY AT END OF TIME STEP   30 IN STRESS PERIOD    5
                    SECONDS     MINUTES      HOURS       DAYS        YEARS
                    -----------------------------------------------------------
   TIME STEP LENGTH  87667.      1461.1      24.352      1.0147     2.77799E-03
 STRESS PERIOD TIME 2.63000E+06  43833.      730.56      30.440     8.33397E-02
         TOTAL TIME 1.06064E+07 1.76773E+05  2946.2      122.76     0.33610    
1
1
                            STRESS PERIOD NO.    6, LENGTH =   2630000.    
                            -----------------------------------------------

                              NUMBER OF TIME STEPS =    30

                               MULTIPLIER FOR DELT =     1.000

                            INITIAL TIME STEP SIZE =   87666.66    

 REUSING NON-PARAMETER GHB CELLS FROM LAST STRESS PERIOD

      2 GHB CELLS

 REUSING STREAM SEGMENT DATA FROM LAST STRESS PERIOD



            AREAL INFILTRATION RATE
 READING ON UNIT   19 WITH FORMAT: (10F4.0)            

            1           2           3           4           5           6           7           8           9          10
 ........................................................................................................................
   1   1.2000E-09   0.000       0.000       0.000       0.000       0.000       0.000       0.000       0.000       0.000    
   2   2.1000E-09  2.0000E-09  8.0000E-10  8.5000E-09   0.000       0.000       0.000       0.000       0.000       0.000    
   3   5.0000E-10  1.1000E-09  8.8000E-09  5.5000E-09   0.000       0.000       0.000       0.000       0.000       0.000    
   4   8.5000E-09  1.1000E-09  1.1000E-09  1.1000E-09  2.0000E-09   0.000       0.000       0.000       0.000       0.000    
   5   8.5000E-09  1.1000E-09  1.1000E-09  1.1000E-09  1.1000E-09   0.000       0.000       0.000       0.000       0.000    
   6   8.5000E-09  5.2000E-09  2.1000E-09  1.1000E-09  1.5000E-09   0.000       0.000       0.000       0.000       0.000    
   7   8.5000E-09  5.2000E-09  2.1000E-09  1.2000E-09  2.0000E-09   0.000       0.000       0.000       0.000       0.000    
   8   5.0000E-10  5.2000E-09  2.1000E-09  1.2000E-09  5.0000E-09   0.000       0.000       0.000       0.000       0.000    
   9   5.0000E-10  5.2000E-09  2.1000E-09  1.2000E-09  5.0000E-09   0.000       0.000       0.000       0.000       0.000    
  10   5.0000E-10  5.2000E-09  2.1000E-09  1.2000E-09  5.8000E-09   0.000       0.000       0.000       0.000       0.000    
  11   1.0000E-10  1.1000E-09  1.1000E-09  1.2000E-09  5.0000E-09   0.000       0.000       0.000       0.000       0.000    
  12   1.1000E-09  1.1000E-09  1.1000E-09  1.1000E-09  2.0000E-09   0.000       0.000       0.000       0.000       0.000    
  13   1.1000E-09  2.2000E-09  2.2000E-09  2.1000E-09  1.0000E-09   0.000       0.000       0.000       0.000       0.000    
  14   2.0000E-10  5.5000E-09  5.5000E-09  5.2000E-09  1.0000E-09   0.000       0.000       0.000       0.000       0.000    
  15    0.000      8.8000E-09  8.8000E-09   0.000       0.000       0.000       0.000       0.000       0.000       0.000    

                  ET RATE =  5.000000E-08

 USING ET EXTINCTION DEPTH FROM PREVIOUS STRESS PERIOD. CURRENT PERIOD IS:       6

 USING EXTINCTION WATER CONTENT FROM PREVIOUS STRESS PERIOD. CURRENT PERIOD IS:       6

 USING AIR ENTRY PRESSURE FROM PREVIOUS STRESS PERIOD. CURRENT PERIOD IS:       6

 USING ROOT PRESSURE HEAD FROM PREVIOUS STRESS PERIOD. CURRENT PERIOD IS:       6

 USING ROOT ACTIVITY FROM PREVIOUS STRESS PERIOD. CURRENT PERIOD IS:       6

 PROCESSING AG STRESS PERIOD DATA

 READING AG STRESS PERIOD DATA

 READING IRRIGATION SEGMENT

 READING IRRIGATION WELL

 READING SUPPLEMENTAL WELL

 END PROCESSING AG STRESS PERIOD DATA OPTIONS
 
 SOLVING FOR HEAD 
                                                   Max.-Head-Change                         Max.-Flux-Residual
  Residual-Control   Outer-Iter.   Inner-Iter.     Column Row Layer    Maximum-Head-Change  Column Row Layer    Maximum-Flux-Residual          L2-NORM 
          0                 1           2             4   13     1       0.1003786734E-01       4   13    1         0.5767775688E+00      0.1118694382E+01
          0                 2           2             4   13     1      -0.2434045384E-02       4   13    1        -0.1436789302E+00      0.2499247832E+00
          0                 3           2             4   13     1      -0.5570613310E-03       4   13    1        -0.3286239833E-01      0.5722906621E-01
          0                 4           2             4   13     1      -0.1677707460E-03       4   13    1        -0.9897490320E-02      0.1706436768E-01
          0                 5           1             4   13     1      -0.4647334998E-04       4   13    1        -0.2741496196E-02      0.4737046969E-02

    ------------------------------------------------
       NWT REQUIRED            5 OUTER ITERATIONS 
       AND A TOTAL OF          9 INNER ITERATIONS.
    ------------------------------------------------

 NO OUTPUT CONTROL FOR STRESS PERIOD    6   TIME STEP    1
 
 SOLVING FOR HEAD 
                                                   Max.-Head-Change                         Max.-Flux-Residual
  Residual-Control   Outer-Iter.   Inner-Iter.     Column Row Layer    Maximum-Head-Change  Column Row Layer    Maximum-Flux-Residual          L2-NORM 
          0                 1           2             4   13     1       0.9324511220E-02       4   13    1         0.5355639336E+00      0.1067185283E+01
          0                 2           2             4   13     1      -0.2413630915E-02       4   13    1        -0.1424466195E+00      0.2492573800E+00
          0                 3           2             4   13     1      -0.5329278715E-03       4   13    1        -0.3143987696E-01      0.5470017755E-01
          0                 4           2             4   13     1      -0.3078288718E-03       4   13    1        -0.1815899507E-01      0.3126832839E-01
          0                 5           2             4   13     1      -0.1500387957E-03       4   13    1        -0.8850148961E-02      0.1526221212E-01
          0                 6           1             4   13     1      -0.7520920238E-04       4   13    1        -0.4436097540E-02      0.7647580948E-02

    ------------------------------------------------
       NWT REQUIRED            6 OUTER ITERATIONS 
       AND A TOTAL OF         11 INNER ITERATIONS.
    ------------------------------------------------

 NO OUTPUT CONTROL FOR STRESS PERIOD    6   TIME STEP    2
 
 SOLVING FOR HEAD 
                                                   Max.-Head-Change                         Max.-Flux-Residual
  Residual-Control   Outer-Iter.   Inner-Iter.     Column Row Layer    Maximum-Head-Change  Column Row Layer    Maximum-Flux-Residual          L2-NORM 
          0                 1           2             4   13     1       0.8717691333E-02       4   13    1         0.5005165044E+00      0.1023184581E+01
          0                 2           2             4   13     1      -0.2356246374E-02       4   13    1        -0.1390398517E+00      0.2446467315E+00
          0                 3           2             4   13     1      -0.5391317547E-03       4   13    1        -0.3180718928E-01      0.5525007039E-01
          0                 4           2             4   13     1      -0.3094417631E-03       4   13    1        -0.1825394301E-01      0.3144486651E-01
          0                 5           2             4   13     1      -0.1524531467E-03       4   13    1        -0.8992537122E-02      0.1550889803E-01
          0                 6           1             4   13     1      -0.7674941614E-04       4   13    1        -0.4526891740E-02      0.7807313786E-02

    ------------------------------------------------
       NWT REQUIRED            6 OUTER ITERATIONS 
       AND A TOTAL OF         11 INNER ITERATIONS.
    ------------------------------------------------

 NO OUTPUT CONTROL FOR STRESS PERIOD    6   TIME STEP    3
 
 SOLVING FOR HEAD 
                                                   Max.-Head-Change                         Max.-Flux-Residual
  Residual-Control   Outer-Iter.   Inner-Iter.     Column Row Layer    Maximum-Head-Change  Column Row Layer    Maximum-Flux-Residual          L2-NORM 
          0                 1           2             4   13     1       0.8172313194E-02       4   13    1         0.4690275831E+00      0.9835223229E+00
          0                 2           2             4   13     1      -0.2301177105E-02       4   13    1        -0.1357729602E+00      0.2400847089E+00
          0                 3           2             4   13     1      -0.5414412109E-03       4   13    1        -0.3194463231E-01      0.5541761835E-01
          0                 4           2             4   13     1      -0.3085642262E-03       4   13    1        -0.1820206684E-01      0.3136705752E-01
          0                 5           2             4   13     1      -0.1521785285E-03       4   13    1        -0.8976312954E-02      0.1548338725E-01
          0                 6           1             4   13     1      -0.7660087058E-04       4   13    1        -0.4518151526E-02      0.7791757444E-02

    ------------------------------------------------
       NWT REQUIRED            6 OUTER ITERATIONS 
       AND A TOTAL OF         11 INNER ITERATIONS.
    ------------------------------------------------

 NO OUTPUT CONTROL FOR STRESS PERIOD    6   TIME STEP    4
 
 SOLVING FOR HEAD 
                                                   Max.-Head-Change                         Max.-Flux-Residual
  Residual-Control   Outer-Iter.   Inner-Iter.     Column Row Layer    Maximum-Head-Change  Column Row Layer    Maximum-Flux-Residual          L2-NORM 
          0                 1           2             4   13     1       0.7680753087E-02       4   13    1         0.4406553304E+00      0.9476590655E+00
          0                 2           2             4   13     1      -0.2251492740E-02       4   13    1        -0.1328264882E+00      0.2359009160E+00
          0                 3           2             4   13     1      -0.5434082724E-03       4   13    1        -0.3206175344E-01      0.5555439814E-01
          0                 4           2             4   13     1      -0.3077869063E-03       4   13    1        -0.1815606277E-01      0.3130315202E-01
          0                 5           2             4   13     1      -0.1519527148E-03       4   13    1        -0.8963006594E-02      0.1546044929E-01
          0                 6           1             4   13     1      -0.7648286439E-04       4   13    1        -0.4511185987E-02      0.7781377980E-02

    ------------------------------------------------
       NWT REQUIRED            6 OUTER ITERATIONS 
       AND A TOTAL OF         11 INNER ITERATIONS.
    ------------------------------------------------

 NO OUTPUT CONTROL FOR STRESS PERIOD    6   TIME STEP    5
 
 SOLVING FOR HEAD 
                                                   Max.-Head-Change                         Max.-Flux-Residual
  Residual-Control   Outer-Iter.   Inner-Iter.     Column Row Layer    Maximum-Head-Change  Column Row Layer    Maximum-Flux-Residual          L2-NORM 
          0                 1           2             2   13     1       0.7255446932E-02       4   13    1         0.4148385850E+00      0.9151025992E+00
          0                 2           2             4   13     1      -0.2202366612E-02       4   13    1        -0.1299125094E+00      0.2319294268E+00
          0                 3           2             4   13     1      -0.5491195402E-03       4   13    1        -0.3239967713E-01      0.5606887383E-01
          0                 4           2             4   13     1      -0.3075963156E-03       4   13    1        -0.1814476308E-01      0.3128699926E-01
          0                 5           2             4   13     1      -0.1513758935E-03       4   13    1        -0.8928959297E-02      0.1540403051E-01
          0                 6           1             4   13     1      -0.7607089713E-04       4   13    1        -0.4486879858E-02      0.7739671979E-02

    ------------------------------------------------
       NWT REQUIRED            6 OUTER ITERATIONS 
       AND A TOTAL OF         11 INNER ITERATIONS.
    ------------------------------------------------

 NO OUTPUT CONTROL FOR STRESS PERIOD    6   TIME STEP    6
 
 SOLVING FOR HEAD 
                                                   Max.-Head-Change                         Max.-Flux-Residual
  Residual-Control   Outer-Iter.   Inner-Iter.     Column Row Layer    Maximum-Head-Change  Column Row Layer    Maximum-Flux-Residual          L2-NORM 
          0                 1           2             2   13     1       0.6916605870E-02       4   13    1         0.3920316801E+00      0.8858449340E+00
          0                 2           2             4   13     1      -0.2166347396E-02       4   13    1        -0.1277794992E+00      0.2285521996E+00
          0                 3           2             4   13     1      -0.5477564541E-03       4   13    1        -0.3231981677E-01      0.5591329191E-01
          0                 4           2             4   13     1      -0.3066167901E-03       4   13    1        -0.1808696967E-01      0.3119016665E-01
          0                 5           2             4   13     1      -0.1515279461E-03       4   13    1        -0.8937939183E-02      0.1542112570E-01
          0                 6           1             4   13     1      -0.7605558049E-04       4   13    1        -0.4485970069E-02      0.7739447988E-02

    ------------------------------------------------
       NWT REQUIRED            6 OUTER ITERATIONS 
       AND A TOTAL OF         11 INNER ITERATIONS.
    ------------------------------------------------

 NO OUTPUT CONTROL FOR STRESS PERIOD    6   TIME STEP    7
 
 SOLVING FOR HEAD 
                                                   Max.-Head-Change                         Max.-Flux-Residual
  Residual-Control   Outer-Iter.   Inner-Iter.     Column Row Layer    Maximum-Head-Change  Column Row Layer    Maximum-Flux-Residual          L2-NORM 
          0                 1           2             2   13     1       0.6603054734E-02       2   13    1         0.3720372147E+00      0.8592147311E+00
          0                 2           2             4   13     1      -0.2126501566E-02       4   13    1        -0.1254198019E+00      0.2249874428E+00
          0                 3           2             4   13     1      -0.5528792415E-03       4   13    1        -0.3262267695E-01      0.5639897991E-01
          0                 4           2             4   13     1      -0.3069828993E-03       4   13    1        -0.1810850611E-01      0.3123285457E-01
          0                 5           2             4   13     1      -0.1513036096E-03       4   13    1        -0.8924698027E-02      0.1539878094E-01
          0                 6           1             4   13     1      -0.7623267608E-04       4   13    1        -0.4496429957E-02      0.7756662187E-02

    ------------------------------------------------
       NWT REQUIRED            6 OUTER ITERATIONS 
       AND A TOTAL OF         11 INNER ITERATIONS.
    ------------------------------------------------

 NO OUTPUT CONTROL FOR STRESS PERIOD    6   TIME STEP    8
 
 SOLVING FOR HEAD 
                                                   Max.-Head-Change                         Max.-Flux-Residual
  Residual-Control   Outer-Iter.   Inner-Iter.     Column Row Layer    Maximum-Head-Change  Column Row Layer    Maximum-Flux-Residual          L2-NORM 
          0                 1           2             2   13     1       0.6313283901E-02       2   13    1         0.3556895262E+00      0.8350712927E+00
          0                 2           2             4   13     1      -0.2096060150E-02       4   13    1        -0.1236163410E+00      0.2222642708E+00
          0                 3           2             4   13     1      -0.5540858360E-03       4   13    1        -0.3269435598E-01      0.5649270104E-01
          0                 4           2             4   13     1      -0.3061371530E-03       4   13    1        -0.1805857445E-01      0.3115035027E-01
          0                 5           2             4   13     1      -0.1509169447E-03       4   13    1        -0.8901762262E-02      0.1536613029E-01
          0                 6           1             4   13     1      -0.7563048482E-04       4   13    1        -0.4461043191E-02      0.7689088374E-02

    ------------------------------------------------
       NWT REQUIRED            6 OUTER ITERATIONS 
       AND A TOTAL OF         11 INNER ITERATIONS.
    ------------------------------------------------

 NO OUTPUT CONTROL FOR STRESS PERIOD    6   TIME STEP    9
 
 SOLVING FOR HEAD 
                                                   Max.-Head-Change                         Max.-Flux-Residual
  Residual-Control   Outer-Iter.   Inner-Iter.     Column Row Layer    Maximum-Head-Change  Column Row Layer    Maximum-Flux-Residual          L2-NORM 
          0                 1           2             2   13     1       0.6045331850E-02       2   13    1         0.3405736251E+00      0.8131484128E+00
          0                 2           2             4   13     1      -0.2067309154E-02       4   13    1        -0.1219140157E+00      0.2196315700E+00
          0                 3           2             4   13     1      -0.5521212195E-03       4   13    1        -0.3257889204E-01      0.5627277763E-01
          0                 4           2             4   13     1      -0.3027063965E-03       4   13    1        -0.1785620259E-01      0.3080384630E-01
          0                 5           2             4   13     1      -0.1501565965E-03       4   13    1        -0.8857067000E-02      0.1528216519E-01
          0                 6           1             4   13     1      -0.7547760344E-04       4   13    1        -0.4451909523E-02      0.7679325769E-02

    ------------------------------------------------
       NWT REQUIRED            6 OUTER ITERATIONS 
       AND A TOTAL OF         11 INNER ITERATIONS.
    ------------------------------------------------

 NO OUTPUT CONTROL FOR STRESS PERIOD    6   TIME STEP   10
 
 SOLVING FOR HEAD 
                                                   Max.-Head-Change                         Max.-Flux-Residual
  Residual-Control   Outer-Iter.   Inner-Iter.     Column Row Layer    Maximum-Head-Change  Column Row Layer    Maximum-Flux-Residual          L2-NORM 
          0                 1           2             2   13     1       0.5797134150E-02       2   13    1         0.3265729924E+00      0.7931910586E+00
          0                 2           2             4   13     1      -0.2040470549E-02       4   13    1        -0.1203257358E+00      0.2171208797E+00
          0                 3           2             4   13     1      -0.5512947227E-03       4   13    1        -0.3253049449E-01      0.5617250616E-01
          0                 4           2             4   13     1      -0.3036303964E-03       4   13    1        -0.1791070066E-01      0.3089799311E-01
          0                 5           2             4   13     1      -0.1505214015E-03       4   13    1        -0.8878594395E-02      0.1531941332E-01
          0                 6           1             4   13     1      -0.7568901281E-04       4   13    1        -0.4464365196E-02      0.7702794910E-02

    ------------------------------------------------
       NWT REQUIRED            6 OUTER ITERATIONS 
       AND A TOTAL OF         11 INNER ITERATIONS.
    ------------------------------------------------

 NO OUTPUT CONTROL FOR STRESS PERIOD    6   TIME STEP   11
 
 SOLVING FOR HEAD 
                                                   Max.-Head-Change                         Max.-Flux-Residual
  Residual-Control   Outer-Iter.   Inner-Iter.     Column Row Layer    Maximum-Head-Change  Column Row Layer    Maximum-Flux-Residual          L2-NORM 
          0                 1           2             2   13     1       0.5567619897E-02       2   13    1         0.3136270983E+00      0.7750211184E+00
          0                 2           2             4   13     1      -0.2016118935E-02       4   13    1        -0.1188851137E+00      0.2148089510E+00
          0                 3           2             4   13     1      -0.5523571535E-03       4   13    1        -0.3259347350E-01      0.5626455307E-01
          0                 4           2             4   13     1      -0.3034937406E-03       4   13    1        -0.1790262773E-01      0.3088539006E-01
          0                 5           2             4   13     1      -0.1505075986E-03       4   13    1        -0.8877792005E-02      0.1531719733E-01
          0                 6           1             4   13     1      -0.7567405613E-04       4   13    1        -0.4463482755E-02      0.7700754798E-02

    ------------------------------------------------
       NWT REQUIRED            6 OUTER ITERATIONS 
       AND A TOTAL OF         11 INNER ITERATIONS.
    ------------------------------------------------

 NO OUTPUT CONTROL FOR STRESS PERIOD    6   TIME STEP   12
 
 SOLVING FOR HEAD 
                                                   Max.-Head-Change                         Max.-Flux-Residual
  Residual-Control   Outer-Iter.   Inner-Iter.     Column Row Layer    Maximum-Head-Change  Column Row Layer    Maximum-Flux-Residual          L2-NORM 
          0                 1           2             2   13     1       0.5355437676E-02       2   13    1         0.3016596882E+00      0.7584642149E+00
          0                 2           2             4   13     1      -0.1994147891E-02       4   13    1        -0.1175858562E+00      0.2126810825E+00
          0                 3           2             4   13     1      -0.5533268440E-03       4   13    1        -0.3265091757E-01      0.5635185980E-01
          0                 4           2             4   13     1      -0.3034533768E-03       4   13    1        -0.1790025157E-01      0.3088210888E-01
          0                 5           2             4   13     1      -0.1505085055E-03       4   13    1        -0.8877855053E-02      0.1531638288E-01
          0                 6           1             4   13     1      -0.7548387264E-04       4   13    1        -0.4452272712E-02      0.7681485842E-02

    ------------------------------------------------
       NWT REQUIRED            6 OUTER ITERATIONS 
       AND A TOTAL OF         11 INNER ITERATIONS.
    ------------------------------------------------

 NO OUTPUT CONTROL FOR STRESS PERIOD    6   TIME STEP   13
 
 SOLVING FOR HEAD 
                                                   Max.-Head-Change                         Max.-Flux-Residual
  Residual-Control   Outer-Iter.   Inner-Iter.     Column Row Layer    Maximum-Head-Change  Column Row Layer    Maximum-Flux-Residual          L2-NORM 
          0                 1           2             2   13     1       0.5159177430E-02       2   13    1         0.2905910517E+00      0.7433540042E+00
          0                 2           2             4   13     1      -0.1974287414E-02       4   13    1        -0.1164118788E+00      0.2107209996E+00
          0                 3           2             4   13     1      -0.5541782657E-03       4   13    1        -0.3270133902E-01      0.5642999428E-01
          0                 4           2             4   13     1      -0.3032271171E-03       4   13    1        -0.1788690309E-01      0.3085787588E-01
          0                 5           2             4   13     1      -0.1504140225E-03       4   13    1        -0.8872284602E-02      0.1530657103E-01
          0                 6           1             4   13     1      -0.7544125166E-04       4   13    1        -0.4449759635E-02      0.7677808397E-02

    ------------------------------------------------
       NWT REQUIRED            6 OUTER ITERATIONS 
       AND A TOTAL OF         11 INNER ITERATIONS.
    ------------------------------------------------

 NO OUTPUT CONTROL FOR STRESS PERIOD    6   TIME STEP   14
 
 SOLVING FOR HEAD 
                                                   Max.-Head-Change                         Max.-Flux-Residual
  Residual-Control   Outer-Iter.   Inner-Iter.     Column Row Layer    Maximum-Head-Change  Column Row Layer    Maximum-Flux-Residual          L2-NORM 
          0                 1           2             2   13     1       0.4977758408E-02       2   13    1         0.2803601594E+00      0.7295519973E+00
          0                 2           2             4   13     1      -0.1956324274E-02       4   13    1        -0.1153505013E+00      0.2089151889E+00
          0                 3           2             4   13     1      -0.5549535441E-03       4   13    1        -0.3274720005E-01      0.5650225432E-01
          0                 4           2             4   13     1      -0.3028234950E-03       4   13    1        -0.1786310362E-01      0.3081718137E-01
          0                 5           2             4   13     1      -0.1502698146E-03       4   13    1        -0.8863786295E-02      0.1529178410E-01
          0                 6           1             4   13     1      -0.7538451155E-04       4   13    1        -0.4446426470E-02      0.7670331576E-02

    ------------------------------------------------
       NWT REQUIRED            6 OUTER ITERATIONS 
       AND A TOTAL OF         11 INNER ITERATIONS.
    ------------------------------------------------

 NO OUTPUT CONTROL FOR STRESS PERIOD    6   TIME STEP   15
 
 SOLVING FOR HEAD 
                                                   Max.-Head-Change                         Max.-Flux-Residual
  Residual-Control   Outer-Iter.   Inner-Iter.     Column Row Layer    Maximum-Head-Change  Column Row Layer    Maximum-Flux-Residual          L2-NORM 
          0                 1           2             2   13     1       0.4809856468E-02       2   13    1         0.2708922204E+00      0.7169155681E+00
          0                 2           2             4   13     1      -0.1940042042E-02       4   13    1        -0.1143888382E+00      0.2072471050E+00
          0                 3           2             4   13     1      -0.5556386488E-03       4   13    1        -0.3278772392E-01      0.5656780988E-01
          0                 4           2             4   13     1      -0.3025585506E-03       4   13    1        -0.1784747871E-01      0.3078978385E-01
          0                 5           2             4   13     1      -0.1497020625E-03       4   13    1        -0.8830304884E-02      0.1523363121E-01
          0                 6           1             4   13     1      -0.7553385464E-04       4   13    1        -0.4455232267E-02      0.7685642308E-02

    ------------------------------------------------
       NWT REQUIRED            6 OUTER ITERATIONS 
       AND A TOTAL OF         11 INNER ITERATIONS.
    ------------------------------------------------

 NO OUTPUT CONTROL FOR STRESS PERIOD    6   TIME STEP   16
 
 SOLVING FOR HEAD 
                                                   Max.-Head-Change                         Max.-Flux-Residual
  Residual-Control   Outer-Iter.   Inner-Iter.     Column Row Layer    Maximum-Head-Change  Column Row Layer    Maximum-Flux-Residual          L2-NORM 
          0                 1           2             2   13     1       0.4654664496E-02       2   13    1         0.2621417357E+00      0.7053343758E+00
          0                 2           2             4   13     1      -0.1925313417E-02       4   13    1        -0.1135193137E+00      0.2057095261E+00
          0                 3           2             4   13     1      -0.5562664429E-03       4   13    1        -0.3282482876E-01      0.5662982962E-01
          0                 4           2             4   13     1      -0.3023538279E-03       4   13    1        -0.1783541224E-01      0.3076757488E-01
          0                 5           2             4   13     1      -0.1496590642E-03       4   13    1        -0.8827782874E-02      0.1522795856E-01
          0                 6           1             4   13     1      -0.7549052322E-04       4   13    1        -0.4452673911E-02      0.7680935702E-02

    ------------------------------------------------
       NWT REQUIRED            6 OUTER ITERATIONS 
       AND A TOTAL OF         11 INNER ITERATIONS.
    ------------------------------------------------

 NO OUTPUT CONTROL FOR STRESS PERIOD    6   TIME STEP   17
 
 SOLVING FOR HEAD 
                                                   Max.-Head-Change                         Max.-Flux-Residual
  Residual-Control   Outer-Iter.   Inner-Iter.     Column Row Layer    Maximum-Head-Change  Column Row Layer    Maximum-Flux-Residual          L2-NORM 
          0                 1           2             2    2     1       0.4622931722E-02       2   13    1         0.2540454814E+00      0.6946993864E+00
          0                 2           2             4   13     1      -0.1911942977E-02       4   13    1        -0.1127303231E+00      0.2042874684E+00
          0                 3           2             4   13     1      -0.5568381741E-03       4   13    1        -0.3285859882E-01      0.5668658117E-01
          0                 4           2             4   13     1      -0.3021834493E-03       4   13    1        -0.1782537724E-01      0.3074880933E-01
          0                 5           2             4   13     1      -0.1495784276E-03       4   13    1        -0.8823028033E-02      0.1521967315E-01
          0                 6           1             4   13     1      -0.7527693619E-04       4   13    1        -0.4440089166E-02      0.7658566390E-02

    ------------------------------------------------
       NWT REQUIRED            6 OUTER ITERATIONS 
       AND A TOTAL OF         11 INNER ITERATIONS.
    ------------------------------------------------

 NO OUTPUT CONTROL FOR STRESS PERIOD    6   TIME STEP   18
 
 SOLVING FOR HEAD 
                                                   Max.-Head-Change                         Max.-Flux-Residual
  Residual-Control   Outer-Iter.   Inner-Iter.     Column Row Layer    Maximum-Head-Change  Column Row Layer    Maximum-Flux-Residual          L2-NORM 
          0                 1           2             2    2     1       0.4600013662E-02       2   13    1         0.2465585977E+00      0.6849241470E+00
          0                 2           2             4   13     1      -0.1899842815E-02       4   13    1        -0.1120166108E+00      0.2029739704E+00
          0                 3           2             4   13     1      -0.5573500934E-03       4   13    1        -0.3288881540E-01      0.5674036199E-01
          0                 4           2             4   13     1      -0.3020196519E-03       4   13    1        -0.1781572964E-01      0.3073010839E-01
          0                 5           2             4   13     1      -0.1495184987E-03       4   13    1        -0.8819497826E-02      0.1521327415E-01
          0                 6           1             4   13     1      -0.7523838073E-04       4   13    1        -0.4437811222E-02      0.7654981503E-02

    ------------------------------------------------
       NWT REQUIRED            6 OUTER ITERATIONS 
       AND A TOTAL OF         11 INNER ITERATIONS.
    ------------------------------------------------

 NO OUTPUT CONTROL FOR STRESS PERIOD    6   TIME STEP   19
 
 SOLVING FOR HEAD 
                                                   Max.-Head-Change                         Max.-Flux-Residual
  Residual-Control   Outer-Iter.   Inner-Iter.     Column Row Layer    Maximum-Head-Change  Column Row Layer    Maximum-Flux-Residual          L2-NORM 
          0                 1           2             2    2     1       0.4577396730E-02       2   13    1         0.2396337727E+00      0.6759149503E+00
          0                 2           2             4   13     1      -0.1888860576E-02       4   13    1        -0.1113691381E+00      0.2017728115E+00
          0                 3           2             4   13     1      -0.5577823352E-03       4   13    1        -0.3291431600E-01      0.5677266890E-01
          0                 4           2             4   13     1      -0.3007984661E-03       4   13    1        -0.1774371259E-01      0.3060609575E-01
          0                 5           2             4   13     1      -0.1499625256E-03       4   13    1        -0.8845698651E-02      0.1525717238E-01
          0                 6           1             4   13     1      -0.7541825468E-04       4   13    1        -0.4448420460E-02      0.7672908518E-02

    ------------------------------------------------
       NWT REQUIRED            6 OUTER ITERATIONS 
       AND A TOTAL OF         11 INNER ITERATIONS.
    ------------------------------------------------

 NO OUTPUT CONTROL FOR STRESS PERIOD    6   TIME STEP   20
 
 SOLVING FOR HEAD 
                                                   Max.-Head-Change                         Max.-Flux-Residual
  Residual-Control   Outer-Iter.   Inner-Iter.     Column Row Layer    Maximum-Head-Change  Column Row Layer    Maximum-Flux-Residual          L2-NORM 
          0                 1           2             2    2     1       0.4555075944E-02       2    2    1         0.2374859432E+00      0.6676119488E+00
          0                 2           2             4   13     1      -0.1878882056E-02       4   13    1        -0.1107811250E+00      0.2006391461E+00
          0                 3           2             4   13     1      -0.5533408620E-03       4   13    1        -0.3265231692E-01      0.5633634419E-01
          0                 4           2             4   13     1      -0.3041566689E-03       4   13    1        -0.1794184188E-01      0.3094406586E-01
          0                 5           2             4   13     1      -0.1503531170E-03       4   13    1        -0.8868747438E-02      0.1529682781E-01
          0                 6           1             4   13     1      -0.7592916553E-04       4   13    1        -0.4478565903E-02      0.7724315346E-02

    ------------------------------------------------
       NWT REQUIRED            6 OUTER ITERATIONS 
       AND A TOTAL OF         11 INNER ITERATIONS.
    ------------------------------------------------

 NO OUTPUT CONTROL FOR STRESS PERIOD    6   TIME STEP   21
 
 SOLVING FOR HEAD 
                                                   Max.-Head-Change                         Max.-Flux-Residual
  Residual-Control   Outer-Iter.   Inner-Iter.     Column Row Layer    Maximum-Head-Change  Column Row Layer    Maximum-Flux-Residual          L2-NORM 
          0                 1           2             2    2     1       0.4533047130E-02       2    2    1         0.2363286316E+00      0.6599303006E+00
          0                 2           2             4   13     1      -0.1869855162E-02       4   13    1        -0.1102494622E+00      0.1996004916E+00
          0                 3           2             4   13     1      -0.5537386213E-03       4   13    1        -0.3267573941E-01      0.5638050946E-01
          0                 4           2             4   13     1      -0.3040066081E-03       4   13    1        -0.1793301101E-01      0.3092636903E-01
          0                 5           2             4   13     1      -0.1503044423E-03       4   13    1        -0.8865888855E-02      0.1529085759E-01
          0                 6           1             4   13     1      -0.7569658574E-04       4   13    1        -0.4464854086E-02      0.7700418248E-02

    ------------------------------------------------
       NWT REQUIRED            6 OUTER ITERATIONS 
       AND A TOTAL OF         11 INNER ITERATIONS.
    ------------------------------------------------

 NO OUTPUT CONTROL FOR STRESS PERIOD    6   TIME STEP   22
 
 SOLVING FOR HEAD 
                                                   Max.-Head-Change                         Max.-Flux-Residual
  Residual-Control   Outer-Iter.   Inner-Iter.     Column Row Layer    Maximum-Head-Change  Column Row Layer    Maximum-Flux-Residual          L2-NORM 
          0                 1           2             2    2     1       0.4511305419E-02       2    2    1         0.2351864585E+00      0.6528315831E+00
          0                 2           2             4   13     1      -0.1861629055E-02       4   13    1        -0.1097652045E+00      0.1986385274E+00
          0                 3           2             4   13     1      -0.5518973886E-03       4   13    1        -0.3256709742E-01      0.5619641009E-01
          0                 4           2             4   13     1      -0.3049694505E-03       4   13    1        -0.1798982856E-01      0.3102350923E-01
          0                 5           2             4   13     1      -0.1506902973E-03       4   13    1        -0.8888648390E-02      0.1533024621E-01
          0                 6           1             4   13     1      -0.7612448506E-04       4   13    1        -0.4490102427E-02      0.7742527786E-02

    ------------------------------------------------
       NWT REQUIRED            6 OUTER ITERATIONS 
       AND A TOTAL OF         11 INNER ITERATIONS.
    ------------------------------------------------

 NO OUTPUT CONTROL FOR STRESS PERIOD    6   TIME STEP   23
 
 SOLVING FOR HEAD 
                                                   Max.-Head-Change                         Max.-Flux-Residual
  Residual-Control   Outer-Iter.   Inner-Iter.     Column Row Layer    Maximum-Head-Change  Column Row Layer    Maximum-Flux-Residual          L2-NORM 
          0                 1           2             2    2     1       0.4489846774E-02       2    2    1         0.2340591714E+00      0.6462467632E+00
          0                 2           2             4   13     1      -0.1854152185E-02       4   13    1        -0.1093252998E+00      0.1977455808E+00
          0                 3           2             4   13     1      -0.5521888849E-03       4   13    1        -0.3258422997E-01      0.5623118770E-01
          0                 4           2             4   13     1      -0.3048688150E-03       4   13    1        -0.1798391845E-01      0.3101015486E-01
          0                 5           2             4   13     1      -0.1506421170E-03       4   13    1        -0.8885814349E-02      0.1532452610E-01
          0                 6           1             4   13     1      -0.7589304756E-04       4   13    1        -0.4476442933E-02      0.7720152688E-02

    ------------------------------------------------
       NWT REQUIRED            6 OUTER ITERATIONS 
       AND A TOTAL OF         11 INNER ITERATIONS.
    ------------------------------------------------

 NO OUTPUT CONTROL FOR STRESS PERIOD    6   TIME STEP   24
 
 SOLVING FOR HEAD 
                                                   Max.-Head-Change                         Max.-Flux-Residual
  Residual-Control   Outer-Iter.   Inner-Iter.     Column Row Layer    Maximum-Head-Change  Column Row Layer    Maximum-Flux-Residual          L2-NORM 
          0                 1           2             2    2     1       0.4468582148E-02       2    2    1         0.2329421142E+00      0.6401295726E+00
          0                 2           2             4   13     1      -0.1847358487E-02       4   13    1        -0.1089257774E+00      0.1969201640E+00
          0                 3           2             4   13     1      -0.5524688489E-03       4   13    1        -0.3260070085E-01      0.5626242014E-01
          0                 4           2             4   13     1      -0.3047485058E-03       4   13    1        -0.1797682155E-01      0.3099761648E-01
          0                 5           2             4   13     1      -0.1506139261E-03       4   13    1        -0.8884160441E-02      0.1532076383E-01
          0                 6           1             4   13     1      -0.7586076118E-04       4   13    1        -0.4474539085E-02      0.7717428558E-02

    ------------------------------------------------
       NWT REQUIRED            6 OUTER ITERATIONS 
       AND A TOTAL OF         11 INNER ITERATIONS.
    ------------------------------------------------

 NO OUTPUT CONTROL FOR STRESS PERIOD    6   TIME STEP   25
 
 SOLVING FOR HEAD 
                                                   Max.-Head-Change                         Max.-Flux-Residual
  Residual-Control   Outer-Iter.   Inner-Iter.     Column Row Layer    Maximum-Head-Change  Column Row Layer    Maximum-Flux-Residual          L2-NORM 
          0                 1           2             2    2     1       0.4447592615E-02       2    2    1         0.2318395635E+00      0.6344507269E+00
          0                 2           2             4   13     1      -0.1841189873E-02       4   13    1        -0.1085632353E+00      0.1961529402E+00
          0                 3           2             4   13     1      -0.5527165825E-03       4   13    1        -0.3261521411E-01      0.5629353553E-01
          0                 4           2             4   13     1      -0.3046600821E-03       4   13    1        -0.1797163653E-01      0.3098628558E-01
          0                 5           2             4   13     1      -0.1505875849E-03       4   13    1        -0.8882618245E-02      0.1531611229E-01
          0                 6           1             4   13     1      -0.7584891204E-04       4   13    1        -0.4473839465E-02      0.7715881052E-02

    ------------------------------------------------
       NWT REQUIRED            6 OUTER ITERATIONS 
       AND A TOTAL OF         11 INNER ITERATIONS.
    ------------------------------------------------

 NO OUTPUT CONTROL FOR STRESS PERIOD    6   TIME STEP   26
 
 SOLVING FOR HEAD 
                                                   Max.-Head-Change                         Max.-Flux-Residual
  Residual-Control   Outer-Iter.   Inner-Iter.     Column Row Layer    Maximum-Head-Change  Column Row Layer    Maximum-Flux-Residual          L2-NORM 
          0                 1           2             2    2     1       0.4426874375E-02       2    2    1         0.2307512761E+00      0.6291588076E+00
          0                 2           2             4   13     1      -0.1835514275E-02       4   13    1        -0.1082298204E+00      0.1954405796E+00
          0                 3           2             4   13     1      -0.5529370297E-03       4   13    1        -0.3262813819E-01      0.5632066549E-01
          0                 4           2             4   13     1      -0.3045608846E-03       4   13    1        -0.1796580297E-01      0.3097419044E-01
          0                 5           2             4   13     1      -0.1505449939E-03       4   13    1        -0.8880113201E-02      0.1531251857E-01
          0                 6           1             4   13     1      -0.7584235391E-04       4   13    1        -0.4473452249E-02      0.7713905597E-02

    ------------------------------------------------
       NWT REQUIRED            6 OUTER ITERATIONS 
       AND A TOTAL OF         11 INNER ITERATIONS.
    ------------------------------------------------

 NO OUTPUT CONTROL FOR STRESS PERIOD    6   TIME STEP   27
 
 SOLVING FOR HEAD 
                                                   Max.-Head-Change                         Max.-Flux-Residual
  Residual-Control   Outer-Iter.   Inner-Iter.     Column Row Layer    Maximum-Head-Change  Column Row Layer    Maximum-Flux-Residual          L2-NORM 
          0                 1           2             2    2     1       0.4406423270E-02       2    2    1         0.2296770550E+00      0.6242219631E+00
          0                 2           2             4   13     1      -0.1830390820E-02       4   13    1        -0.1079290554E+00      0.1947801078E+00
          0                 3           2             4   13     1      -0.5531364200E-03       4   13    1        -0.3263981640E-01      0.5634589339E-01
          0                 4           2             4   13     1      -0.3044918489E-03       4   13    1        -0.1796174827E-01      0.3096581577E-01
          0                 5           2             4   13     1      -0.1505180934E-03       4   13    1        -0.8878517567E-02      0.1530870082E-01
          0                 6           1             4   13     1      -0.7560949396E-04       4   13    1        -0.4459723924E-02      0.7691947521E-02

    ------------------------------------------------
       NWT REQUIRED            6 OUTER ITERATIONS 
       AND A TOTAL OF         11 INNER ITERATIONS.
    ------------------------------------------------

 NO OUTPUT CONTROL FOR STRESS PERIOD    6   TIME STEP   28
 
 SOLVING FOR HEAD 
                                                   Max.-Head-Change                         Max.-Flux-Residual
  Residual-Control   Outer-Iter.   Inner-Iter.     Column Row Layer    Maximum-Head-Change  Column Row Layer    Maximum-Flux-Residual          L2-NORM 
          0                 1           2             2    2     1       0.4386235237E-02       2    2    1         0.2286166847E+00      0.6196141163E+00
          0                 2           2             4   13     1      -0.1825715039E-02       4   13    1        -0.1076547131E+00      0.1941670687E+00
          0                 3           2             4   13     1      -0.5533152649E-03       4   13    1        -0.3265029209E-01      0.5636759835E-01
          0                 4           2             4   13     1      -0.3044111138E-03       4   13    1        -0.1795697377E-01      0.3095854402E-01
          0                 5           2             4   13     1      -0.1505040869E-03       4   13    1        -0.8877732778E-02      0.1530548783E-01
          0                 6           1             4   13     1      -0.7561824214E-04       4   13    1        -0.4460242135E-02      0.7690723224E-02

    ------------------------------------------------
       NWT REQUIRED            6 OUTER ITERATIONS 
       AND A TOTAL OF         11 INNER ITERATIONS.
    ------------------------------------------------

 NO OUTPUT CONTROL FOR STRESS PERIOD    6   TIME STEP   29
 
 SOLVING FOR HEAD 
                                                   Max.-Head-Change                         Max.-Flux-Residual
  Residual-Control   Outer-Iter.   Inner-Iter.     Column Row Layer    Maximum-Head-Change  Column Row Layer    Maximum-Flux-Residual          L2-NORM 
          0                 1           2             2    2     1       0.4097826741E-02       2    2    1         0.2135390669E+00      0.5449322562E+00
          0                 2           2             4   13     1      -0.1723454968E-02       4   13    1        -0.1015859091E+00      0.1835871578E+00
          0                 3           2             4   13     1      -0.5581913625E-03       4   13    1        -0.3292670633E-01      0.5680436051E-01
          0                 4           2             4   13     1      -0.3029768524E-03       4   13    1        -0.1786624284E-01      0.3080095104E-01
          0                 5           2             4   13     1      -0.1500213485E-03       4   13    1        -0.8846177294E-02      0.1525192658E-01
          0                 6           1             4   13     1      -0.7536844640E-04       4   13    1        -0.4443986132E-02      0.7660541269E-02

    ------------------------------------------------
       NWT REQUIRED            6 OUTER ITERATIONS 
       AND A TOTAL OF         11 INNER ITERATIONS.
    ------------------------------------------------

 NO OUTPUT CONTROL FOR STRESS PERIOD    6   TIME STEP   30



 STREAM LISTING     PERIOD      6   STEP       30

 LAYER ROW COL. STREAM  RCH.  FLOW INTO     FLOW TO   FLOW OUT OF   OVRLND.     DIRECT     STREAM       STREAM     STREAM     STREAM   STREAMBED  STREAMBED
                SEG.NO.  NO.  STRM. RCH.    AQUIFER    STRM. RCH.    RUNOFF     PRECIP       ET          HEAD       DEPTH      WIDTH   CONDCTNC.   GRADIENT

   1    1    1     1     1    3.4633E+01  2.8494E-01   3.4348E+01  0.000E+00  0.000E+00  0.000E+00  1.09434E+03  1.289E+00  1.476E+01  6.643E-02  1.430E+00
   1    2    2     1     2    3.4348E+01  4.4115E-01   3.3907E+01  0.000E+00  0.000E+00  0.000E+00  1.08934E+03  1.286E+00  1.470E+01  1.029E-01  1.429E+00
   1    3    3     1     3    3.3907E+01  3.7610E-01   3.3531E+01  0.000E+00  0.000E+00  0.000E+00  1.08370E+03  1.283E+00  1.464E+01  8.782E-02  1.428E+00
   1    3    4     1     4    3.3531E+01  3.4622E-01   3.3185E+01  0.000E+00  0.000E+00  0.000E+00  1.07869E+03  1.280E+00  1.458E+01  8.090E-02  1.427E+00
   1    4    5     2     1    3.1185E+01  3.4119E-01   3.0843E+01  0.000E+00  0.000E+00  0.000E+00  1.07331E+03  1.374E+00  1.200E+01  7.800E-02  1.458E+00
   1    5    6     2     2    3.0843E+01  2.6198E-01   3.0581E+01  0.000E+00  0.000E+00  0.000E+00  1.06788E+03  1.366E+00  1.200E+01  6.000E-02  1.455E+00
   1    6    6     2     3    3.0581E+01  2.6156E-01   3.0320E+01  0.000E+00  0.000E+00  0.000E+00  1.06315E+03  1.359E+00  1.200E+01  6.000E-02  1.453E+00
   1    7    6     2     4    3.0320E+01  2.6113E-01   3.0059E+01  0.000E+00  0.000E+00  0.000E+00  1.05843E+03  1.352E+00  1.200E+01  6.000E-02  1.451E+00
   1    8    6     2     5    3.0059E+01  2.6071E-01   2.9798E+01  0.000E+00  0.000E+00  0.000E+00  1.05370E+03  1.345E+00  1.200E+01  6.000E-02  1.448E+00
   1    3    5     3     1    2.0000E+00  2.8252E-01   1.7175E+00  0.000E+00  0.000E+00  0.000E+00  1.07555E+03  1.909E+00  9.636E+00  7.227E-02  1.955E+00
   1    3    6     3     2    1.7175E+00  2.4905E-01   1.4684E+00  0.000E+00  0.000E+00  0.000E+00  1.07264E+03  1.727E+00  8.909E+00  6.682E-02  1.864E+00
   1    3    7     3     3    1.4684E+00  1.9718E-01   1.2712E+00  0.000E+00  0.000E+00  0.000E+00  1.06987E+03  1.555E+00  8.218E+00  5.547E-02  1.777E+00
   1    4    8     3     4    1.2712E+00  2.2567E-01   1.0456E+00  0.000E+00  0.000E+00  0.000E+00  1.06682E+03  1.364E+00  7.455E+00  6.709E-02  1.682E+00
   1    5    8     3     5    1.0456E+00  1.5790E-01   8.8768E-01  0.000E+00  0.000E+00  0.000E+00  1.06362E+03  1.164E+00  6.655E+00  4.991E-02  1.582E+00
   1    6    8     3     6    8.8768E-01  5.5980E-02   8.3170E-01  0.000E+00  0.000E+00  0.000E+00  1.06158E+03  1.036E+00  6.145E+00  1.844E-02  1.518E+00
   1    5   10     4     1    1.0000E+01  9.0919E-02   9.9091E+00  0.000E+00  0.000E+00  0.000E+00  1.07836E+03  6.368E-01  1.000E+01  2.500E-02  1.212E+00
   1    5    9     4     2    9.9091E+00  1.8158E-01   9.7275E+00  0.000E+00  0.000E+00  0.000E+00  1.07154E+03  6.315E-01  1.000E+01  5.000E-02  1.211E+00
   1    6    8     4     3    9.7275E+00  1.2689E-01   9.6006E+00  0.000E+00  0.000E+00  0.000E+00  1.06381E+03  6.256E-01  1.000E+01  3.500E-02  1.209E+00
   1    6    8     5     1    1.0432E+01  2.2686E-01   1.0205E+01  0.000E+00  0.000E+00  0.000E+00  1.05868E+03  6.790E-01  1.542E+01  6.166E-02  1.226E+00
   1    7    7     5     2    1.0205E+01  2.7894E-01   9.9265E+00  0.000E+00  0.000E+00  0.000E+00  1.05417E+03  6.732E-01  1.519E+01  7.594E-02  1.224E+00
   1    8    7     5     3    9.9265E+00  1.9221E-01   9.7343E+00  0.000E+00  0.000E+00  0.000E+00  1.04992E+03  6.676E-01  1.497E+01  5.241E-02  1.223E+00
   1    8    6     5     4    9.7343E+00  1.3577E-01   9.5985E+00  0.000E+00  0.000E+00  0.000E+00  1.04691E+03  6.637E-01  1.482E+01  3.706E-02  1.221E+00
   1    9    6     6     1    3.2156E+01  2.6520E-01   3.1891E+01  0.000E+00  0.000E+00  0.000E+00  1.04415E+03  1.420E+00  1.200E+01  6.000E-02  1.473E+00
   1   10    7     6     2    3.1891E+01  2.6477E-01   3.1626E+01  0.000E+00  0.000E+00  0.000E+00  1.03959E+03  1.413E+00  1.200E+01  6.000E-02  1.471E+00
   1   11    7     6     3    3.1626E+01  2.6435E-01   3.1362E+01  0.000E+00  0.000E+00  0.000E+00  1.03504E+03  1.406E+00  1.200E+01  6.000E-02  1.469E+00
   1   12    7     6     4    3.1362E+01  2.6393E-01   3.1098E+01  0.000E+00  0.000E+00  0.000E+00  1.03049E+03  1.399E+00  1.200E+01  6.000E-02  1.466E+00
   1   13    7     6     5    3.1098E+01  1.0549E-02   3.1087E+01  0.000E+00  0.000E+00  0.000E+00  1.02730E+03  1.395E+00  1.200E+01  2.400E-02  1.465E-01
   1   14    9     7     1    1.5000E+02  1.3677E+00   1.4863E+02  0.000E+00  0.000E+00  0.000E+00  1.03987E+03  2.288E+00  5.529E+01  5.593E-01  8.152E-01
   1   13    8     7     2    1.4863E+02  1.9155E+00   1.4672E+02  0.000E+00  0.000E+00  0.000E+00  1.03478E+03  2.279E+00  5.526E+01  6.148E-01  1.039E+00
   1   13    7     7     3    1.4672E+02  1.5771E+00   1.4514E+02  0.000E+00  0.000E+00  0.000E+00  1.02969E+03  2.270E+00  5.521E+01  5.584E-01  9.414E-01
   1   13    6     8     1    1.7623E+02  1.0380E+00   1.7519E+02  0.000E+00  0.000E+00  0.000E+00  1.02486E+03  2.990E+00  4.335E+01  4.418E-01  7.832E-01
   1   13    5     8     2    1.7519E+02  2.6100E-01   1.7493E+02  0.000E+00  0.000E+00  0.000E+00  1.01861E+03  2.986E+00  4.329E+01  4.412E-01  1.972E-01
   1   13    4     8     3    1.7493E+02 -2.2238E+00   1.7715E+02  0.000E+00  0.000E+00  0.000E+00  1.01237E+03  2.992E+00  4.338E+01  4.421E+00 -1.677E-01
   1   13    3     8     4    1.7715E+02 -3.5403E+00   1.8069E+02  0.000E+00  0.000E+00  0.000E+00  1.00614E+03  3.010E+00  4.365E+01  4.448E+00 -2.653E-01
   1   13    2     8     5    1.8069E+02 -2.5378E+00   1.8323E+02  0.000E+00  0.000E+00  0.000E+00  9.99904E+02  3.029E+00  4.392E+01  4.476E+00 -1.890E-01
   1   13    1     8     6    1.8323E+02 -1.9430E+00   1.8517E+02  0.000E+00  0.000E+00  0.000E+00  9.94918E+02  3.043E+00  4.413E+01  2.698E+00 -2.401E-01
   1    8    6     9     1    7.2404E+00  0.0000E+00   7.2404E+00  0.000E+00  0.000E+00  0.000E+00  1.08060E+03  1.847E+00  4.000E+00  0.000E+00  1.616E+00
   1    8    5     9     2    7.2404E+00  0.0000E+00   7.2404E+00  0.000E+00  0.000E+00  0.000E+00  1.08010E+03  1.847E+00  4.000E+00  0.000E+00  1.616E+00





UNSATURATED ZONE PACKAGE VOLUMETRIC BUDGET FOR  TIME STEP    30 STRESS PERIOD    6
  ------------------------------------------------------------------------------



     CUMULATIVE VOLUMES      L**3       RATES FOR THIS TIME STEP      L**3/T
     ------------------                 ------------------------

           IN:                                      IN:
           ---                                      ---
        INFILTRATION =    85654169.9241          INFILTRATION =          11.6481

          OUT:                                     OUT:
          ----                                     ----
              UZF ET =    66096166.7627                UZF ET =          11.5656
        UZF RECHARGE =       73224.0000          UZF RECHARGE =       0.0000E+00

            IN - OUT =    19484779.1614              IN - OUT =       8.2448E-02

          STORAGE:                                 STORAGE:
          --------                                 --------
      STORAGE CHANGE =    19484778.6690        STORAGE CHANGE =       8.2448E-02

 PERCENT DISCREPANCY IS DIFFERENCE BETWEEN IN-OUT MINUS CHANGE IN STORAGE
 DIVIDED BY THE AVERAGE OF IN AND OUT TIMES 100

 PERCENT DISCREPANCY =           0.00     PERCENT DISCREPANCY =           0.00






1
  VOLUMETRIC BUDGET FOR AGRICULTURAL FIELDS AT  END OF TIME STEP   30, STRESS PERIOD   6
  ------------------------------------------------------------------------------

     CUMULATIVE VOLUMES      L**3       RATES FOR THIS TIME STEP      L**3/T
     ------------------                 ------------------------

           IN:                                      IN:
           ---                                      ---
               AG WELLS  =           0.0000                 AG WELLS  =           0.0000
      DIVERSION SEGMENTS =    27621776.0000        DIVERSION SEGMENTS =           7.2404
           GW IRRIGATION =           0.0000             GW IRRIGATION =           0.0000
           SW IRRIGATION =           0.0000             SW IRRIGATION =           0.0000
        SYSTEM LOSSES GW =           0.0000          SYSTEM LOSSES GW =           0.0000
        SYSTEM LOSSES SW =           0.0000          SYSTEM LOSSES SW =           0.0000

                TOTAL IN =    27621776.0000                  TOTAL IN =           7.2404

          OUT:                                     OUT:
          ----                                     ----
               AG WELLS  =           0.0000                 AG WELLS  =           0.0000
      DIVERSION SEGMENTS =           0.0000        DIVERSION SEGMENTS =           0.0000
           GW IRRIGATION =           0.0000             GW IRRIGATION =           0.0000
           SW IRRIGATION =    27622322.0000             SW IRRIGATION =           7.2406
        SYSTEM LOSSES GW =           0.0000          SYSTEM LOSSES GW =           0.0000
        SYSTEM LOSSES SW =           0.0000          SYSTEM LOSSES SW =           0.0000

               TOTAL OUT =    27622322.0000                 TOTAL OUT =           7.2406

                IN - OUT =        -546.0000                  IN - OUT =      -1.4448E-04

     PERCENT DISCREPANCY =          -0.00         PERCENT DISCREPANCY =          -0.00



1
  VOLUMETRIC BUDGET FOR ENTIRE MODEL AT END OF TIME STEP   30, STRESS PERIOD   6
  ------------------------------------------------------------------------------

     CUMULATIVE VOLUMES      L**3       RATES FOR THIS TIME STEP      L**3/T
     ------------------                 ------------------------

           IN:                                      IN:
           ---                                      ---
             STORAGE     =     8047098.0000               STORAGE     =           0.3860
       CONSTANT HEAD     =           0.0000         CONSTANT HEAD     =           0.0000
     HEAD DEP BOUNDS     =     3810180.0000       HEAD DEP BOUNDS     =           0.2879
      STREAM LEAKAGE     =   156270816.0000        STREAM LEAKAGE     =          12.4646
        UZF RECHARGE     =       73223.9531          UZF RECHARGE     =           0.0000
               GW ET     =           0.0000                 GW ET     =           0.0000
     SURFACE LEAKAGE     =           0.0000       SURFACE LEAKAGE     =           0.0000
           AG WELLS      =           0.0000             AG WELLS      =           0.0000

                TOTAL IN =   168201312.0000                  TOTAL IN =          13.1385

          OUT:                                     OUT:
          ----                                     ----
             STORAGE     =    29918874.0000               STORAGE     =           2.6021
       CONSTANT HEAD     =           0.0000         CONSTANT HEAD     =           0.0000
     HEAD DEP BOUNDS     =     3818609.7500       HEAD DEP BOUNDS     =           0.2903
      STREAM LEAKAGE     =   134460128.0000        STREAM LEAKAGE     =          10.2449
        UZF RECHARGE     =           0.0000          UZF RECHARGE     =           0.0000
               GW ET     =           0.0000                 GW ET     =           0.0000
     SURFACE LEAKAGE     =           0.0000       SURFACE LEAKAGE     =           0.0000
           AG WELLS      =           0.0000             AG WELLS      =           0.0000

               TOTAL OUT =   168197616.0000                 TOTAL OUT =          13.1373

                IN - OUT =        3696.0000                  IN - OUT =       1.2407E-03

     PERCENT DISCREPANCY =           0.00         PERCENT DISCREPANCY =           0.01






         TIME SUMMARY AT END OF TIME STEP   30 IN STRESS PERIOD    6
                    SECONDS     MINUTES      HOURS       DAYS        YEARS
                    -----------------------------------------------------------
   TIME STEP LENGTH  87667.      1461.1      24.352      1.0147     2.77799E-03
 STRESS PERIOD TIME 2.63000E+06  43833.      730.56      30.440     8.33397E-02
         TOTAL TIME 1.32364E+07 2.20607E+05  3676.8      153.20     0.41944    
1
1
                            STRESS PERIOD NO.    7, LENGTH =   2630000.    
                            -----------------------------------------------

                              NUMBER OF TIME STEPS =    30

                               MULTIPLIER FOR DELT =     1.000

                            INITIAL TIME STEP SIZE =   87666.66    

 REUSING NON-PARAMETER GHB CELLS FROM LAST STRESS PERIOD

      2 GHB CELLS

 REUSING STREAM SEGMENT DATA FROM LAST STRESS PERIOD



            AREAL INFILTRATION RATE
 READING ON UNIT   19 WITH FORMAT: (10F4.0)            

            1           2           3           4           5           6           7           8           9          10
 ........................................................................................................................
   1   1.2000E-09   0.000       0.000       0.000       0.000       0.000       0.000       0.000       0.000       0.000    
   2   2.1000E-09  2.0000E-09  8.0000E-10  8.5000E-09   0.000       0.000       0.000       0.000       0.000       0.000    
   3   5.0000E-10  1.1000E-09  8.8000E-09  5.5000E-09   0.000       0.000       0.000       0.000       0.000       0.000    
   4   8.5000E-09  1.1000E-09  1.1000E-09  1.1000E-09  2.0000E-09   0.000       0.000       0.000       0.000       0.000    
   5   8.5000E-09  1.1000E-09  1.1000E-09  1.1000E-09  1.1000E-09   0.000       0.000       0.000       0.000       0.000    
   6   8.5000E-09  5.2000E-09  2.1000E-09  1.1000E-09  1.5000E-09   0.000       0.000       0.000       0.000       0.000    
   7   8.5000E-09  5.2000E-09  2.1000E-09  1.2000E-09  2.0000E-09   0.000       0.000       0.000       0.000       0.000    
   8   5.0000E-10  5.2000E-09  2.1000E-09  1.2000E-09  5.0000E-09   0.000       0.000       0.000       0.000       0.000    
   9   5.0000E-10  5.2000E-09  2.1000E-09  1.2000E-09  5.0000E-09   0.000       0.000       0.000       0.000       0.000    
  10   5.0000E-10  5.2000E-09  2.1000E-09  1.2000E-09  5.8000E-09   0.000       0.000       0.000       0.000       0.000    
  11   1.0000E-10  1.1000E-09  1.1000E-09  1.2000E-09  5.0000E-09   0.000       0.000       0.000       0.000       0.000    
  12   1.1000E-09  1.1000E-09  1.1000E-09  1.1000E-09  2.0000E-09   0.000       0.000       0.000       0.000       0.000    
  13   1.1000E-09  2.2000E-09  2.2000E-09  2.1000E-09  1.0000E-09   0.000       0.000       0.000       0.000       0.000    
  14   2.0000E-10  5.5000E-09  5.5000E-09  5.2000E-09  1.0000E-09   0.000       0.000       0.000       0.000       0.000    
  15    0.000      8.8000E-09  8.8000E-09   0.000       0.000       0.000       0.000       0.000       0.000       0.000    

                  ET RATE =  1.500000E-07

 USING ET EXTINCTION DEPTH FROM PREVIOUS STRESS PERIOD. CURRENT PERIOD IS:       7

 USING EXTINCTION WATER CONTENT FROM PREVIOUS STRESS PERIOD. CURRENT PERIOD IS:       7

 USING AIR ENTRY PRESSURE FROM PREVIOUS STRESS PERIOD. CURRENT PERIOD IS:       7

 USING ROOT PRESSURE HEAD FROM PREVIOUS STRESS PERIOD. CURRENT PERIOD IS:       7

 USING ROOT ACTIVITY FROM PREVIOUS STRESS PERIOD. CURRENT PERIOD IS:       7

 PROCESSING AG STRESS PERIOD DATA

 READING AG STRESS PERIOD DATA

 READING IRRIGATION SEGMENT

 READING IRRIGATION WELL

 READING SUPPLEMENTAL WELL

 END PROCESSING AG STRESS PERIOD DATA OPTIONS
 
 SOLVING FOR HEAD 
                                                   Max.-Head-Change                         Max.-Flux-Residual
  Residual-Control   Outer-Iter.   Inner-Iter.     Column Row Layer    Maximum-Head-Change  Column Row Layer    Maximum-Flux-Residual          L2-NORM 
          0                 1           2             2    2     1       0.3684046398E-02       2    2    1         0.1919102287E+00      0.4625435216E+00
          0                 2           2             4   13     1      -0.5833009529E-02       4   13    1        -0.3433048115E+00      0.5946737915E+00
          0                 3           2             4   13     1      -0.7327729324E-03       4   13    1        -0.4312159174E-01      0.7506307495E-01
          0                 4           2             4   13     1      -0.2701175009E-03       4   13    1        -0.1589197801E-01      0.2741470864E-01
          0                 5           2             4   13     1      -0.1395571103E-03       4   13    1        -0.8210222893E-02      0.1530424933E-01
          0                 6           1             4   13     1      -0.6993880904E-04       4   13    1        -0.4114357389E-02      0.7233001955E-02

    ------------------------------------------------
       NWT REQUIRED            6 OUTER ITERATIONS 
       AND A TOTAL OF         11 INNER ITERATIONS.
    ------------------------------------------------

 NO OUTPUT CONTROL FOR STRESS PERIOD    7   TIME STEP    1
 
 SOLVING FOR HEAD 
                                                   Max.-Head-Change                         Max.-Flux-Residual
  Residual-Control   Outer-Iter.   Inner-Iter.     Column Row Layer    Maximum-Head-Change  Column Row Layer    Maximum-Flux-Residual          L2-NORM 
          0                 1           2             2    2     1       0.3669369108E-02       2    2    1         0.1911397369E+00      0.4945291939E+00
          0                 2           2             4   13     1      -0.7003183901E-02       4   13    1        -0.4120300054E+00      0.7248393470E+00
          0                 3           2             4   13     1      -0.4801621800E-03       4   13    1        -0.2824392871E-01      0.5041045787E-01
          0                 4           2             7   13     1      -0.4043332557E-03       7   13    1        -0.2374072942E-01      0.3908531844E-01
          0                 5           2             4   13     1      -0.1514875211E-03       4   13    1        -0.8908519733E-02      0.1584731471E-01
          0                 6           1             4   13     1      -0.7572892649E-04       4   13    1        -0.4453171608E-02      0.7952492012E-02

    ------------------------------------------------
       NWT REQUIRED            6 OUTER ITERATIONS 
       AND A TOTAL OF         11 INNER ITERATIONS.
    ------------------------------------------------

 NO OUTPUT CONTROL FOR STRESS PERIOD    7   TIME STEP    2
 
 SOLVING FOR HEAD 
                                                   Max.-Head-Change                         Max.-Flux-Residual
  Residual-Control   Outer-Iter.   Inner-Iter.     Column Row Layer    Maximum-Head-Change  Column Row Layer    Maximum-Flux-Residual          L2-NORM 
          0                 1           2             2    2     1       0.3654786260E-02       2    2    1         0.1903742853E+00      0.5143420885E+00
          0                 2           2             4   13     1      -0.7086227737E-02       4   13    1        -0.4169406510E+00      0.7315654261E+00
          0                 3           2             4   13     1      -0.4797169674E-03       4   13    1        -0.2821605693E-01      0.5045710929E-01
          0                 4           2             7   13     1      -0.4045596338E-03       7   13    1        -0.2375448158E-01      0.3896290855E-01
          0                 5           2             4   13     1      -0.1511828946E-03       4   13    1        -0.8890602365E-02      0.1580916788E-01
          0                 6           1             4   13     1      -0.7571199994E-04       4   13    1        -0.4452203130E-02      0.7945693958E-02

    ------------------------------------------------
       NWT REQUIRED            6 OUTER ITERATIONS 
       AND A TOTAL OF         11 INNER ITERATIONS.
    ------------------------------------------------

 NO OUTPUT CONTROL FOR STRESS PERIOD    7   TIME STEP    3
 
 SOLVING FOR HEAD 
                                                   Max.-Head-Change                         Max.-Flux-Residual
  Residual-Control   Outer-Iter.   Inner-Iter.     Column Row Layer    Maximum-Head-Change  Column Row Layer    Maximum-Flux-Residual          L2-NORM 
          0                 1           2             2    2     1       0.3640381680E-02       2    2    1         0.1896181782E+00      0.5369151560E+00
          0                 2           2             4   13     1      -0.7161602453E-02       4   13    1        -0.4213964348E+00      0.7377814129E+00
          0                 3           2             4   13     1      -0.4828994891E-03       4   13    1        -0.2840173138E-01      0.5085355209E-01
          0                 4           2             7   13     1      -0.4060854102E-03       7   13    1        -0.2384467933E-01      0.3888921505E-01
          0                 5           2             4   13     1      -0.1504892328E-03       4   13    1        -0.8849797715E-02      0.1573260614E-01
          0                 6           1             4   13     1      -0.7526172453E-04       4   13    1        -0.4425718501E-02      0.7896265896E-02

    ------------------------------------------------
       NWT REQUIRED            6 OUTER ITERATIONS 
       AND A TOTAL OF         11 INNER ITERATIONS.
    ------------------------------------------------

 NO OUTPUT CONTROL FOR STRESS PERIOD    7   TIME STEP    4
 
 SOLVING FOR HEAD 
                                                   Max.-Head-Change                         Max.-Flux-Residual
  Residual-Control   Outer-Iter.   Inner-Iter.     Column Row Layer    Maximum-Head-Change  Column Row Layer    Maximum-Flux-Residual          L2-NORM 
          0                 1           2             2    2     1       0.3626237484E-02       4   13    1         0.2015625084E+00      0.5608832441E+00
          0                 2           2             4   13     1      -0.7230122509E-02       4   13    1        -0.4254457946E+00      0.7435309370E+00
          0                 3           2             4   13     1      -0.4818023329E-03       4   13    1        -0.2833591854E-01      0.5081354958E-01
          0                 4           2             7   13     1      -0.4056812221E-03       7   13    1        -0.2382136084E-01      0.3871651226E-01
          0                 5           2             4   13     1      -0.1496539415E-03       4   13    1        -0.8800682498E-02      0.1563937478E-01
          0                 6           1             4   13     1      -0.7486904468E-04       4   13    1        -0.4402644779E-02      0.7850982447E-02

    ------------------------------------------------
       NWT REQUIRED            6 OUTER ITERATIONS 
       AND A TOTAL OF         11 INNER ITERATIONS.
    ------------------------------------------------

 OUTPUT CONTROL FOR STRESS PERIOD    7   TIME STEP    5
    PRINT BUDGET
    SAVE BUDGET
 UBDSV1 SAVING "         STORAGE" ON UNIT 102 AT TIME STEP  5, STRESS PERIOD   7
 UBDSV2 SAVING "   CONSTANT HEAD" ON UNIT 102 AT TIME STEP  5, STRESS PERIOD   7
 UBDSV1 SAVING "FLOW RIGHT FACE " ON UNIT 102 AT TIME STEP  5, STRESS PERIOD   7
 UBDSV1 SAVING "FLOW FRONT FACE " ON UNIT 102 AT TIME STEP  5, STRESS PERIOD   7

  HEAD DEP BOUNDS   PERIOD    7   STEP     5
 BOUNDARY      1   LAYER   1   ROW    13   COL     1   RATE   -0.289714    
 BOUNDARY      2   LAYER   1   ROW    14   COL     9   RATE    0.287935    



 STREAM LISTING     PERIOD      7   STEP        5

 LAYER ROW COL. STREAM  RCH.  FLOW INTO     FLOW TO   FLOW OUT OF   OVRLND.     DIRECT     STREAM       STREAM     STREAM     STREAM   STREAMBED  STREAMBED
                SEG.NO.  NO.  STRM. RCH.    AQUIFER    STRM. RCH.    RUNOFF     PRECIP       ET          HEAD       DEPTH      WIDTH   CONDCTNC.   GRADIENT

   1    1    1     1     1    3.1125E+01  2.7165E-01   3.0853E+01  0.000E+00  0.000E+00  0.000E+00  1.09431E+03  1.259E+00  1.417E+01  6.378E-02  1.420E+00
   1    2    2     1     2    3.0853E+01  4.2045E-01   3.0433E+01  0.000E+00  0.000E+00  0.000E+00  1.08931E+03  1.256E+00  1.411E+01  9.879E-02  1.419E+00
   1    3    3     1     3    3.0433E+01  3.5834E-01   3.0075E+01  0.000E+00  0.000E+00  0.000E+00  1.08367E+03  1.252E+00  1.404E+01  8.427E-02  1.417E+00
   1    3    4     1     4    3.0075E+01  3.2976E-01   2.9745E+01  0.000E+00  0.000E+00  0.000E+00  1.07866E+03  1.249E+00  1.398E+01  7.761E-02  1.416E+00
   1    4    5     2     1    2.7745E+01  3.3390E-01   2.7411E+01  0.000E+00  0.000E+00  0.000E+00  1.07321E+03  1.281E+00  1.200E+01  7.800E-02  1.427E+00
   1    5    6     2     2    2.7411E+01  2.5635E-01   2.7155E+01  0.000E+00  0.000E+00  0.000E+00  1.06778E+03  1.273E+00  1.200E+01  6.000E-02  1.424E+00
   1    6    6     2     3    2.7155E+01  2.5592E-01   2.6899E+01  0.000E+00  0.000E+00  0.000E+00  1.06306E+03  1.265E+00  1.200E+01  6.000E-02  1.422E+00
   1    7    6     2     4    2.6899E+01  2.5549E-01   2.6643E+01  0.000E+00  0.000E+00  0.000E+00  1.05833E+03  1.258E+00  1.200E+01  6.000E-02  1.419E+00
   1    8    6     2     5    2.6643E+01  2.5506E-01   2.6388E+01  0.000E+00  0.000E+00  0.000E+00  1.05361E+03  1.251E+00  1.200E+01  6.000E-02  1.417E+00
   1    3    5     3     1    2.0000E+00  2.8252E-01   1.7175E+00  0.000E+00  0.000E+00  0.000E+00  1.07555E+03  1.909E+00  9.636E+00  7.227E-02  1.955E+00
   1    3    6     3     2    1.7175E+00  2.4905E-01   1.4684E+00  0.000E+00  0.000E+00  0.000E+00  1.07264E+03  1.727E+00  8.909E+00  6.682E-02  1.864E+00
   1    3    7     3     3    1.4684E+00  1.9718E-01   1.2712E+00  0.000E+00  0.000E+00  0.000E+00  1.06987E+03  1.555E+00  8.218E+00  5.547E-02  1.777E+00
   1    4    8     3     4    1.2712E+00  2.2567E-01   1.0456E+00  0.000E+00  0.000E+00  0.000E+00  1.06682E+03  1.364E+00  7.455E+00  6.709E-02  1.682E+00
   1    5    8     3     5    1.0456E+00  1.5790E-01   8.8768E-01  0.000E+00  0.000E+00  0.000E+00  1.06362E+03  1.164E+00  6.655E+00  4.991E-02  1.582E+00
   1    6    8     3     6    8.8768E-01  5.5980E-02   8.3170E-01  0.000E+00  0.000E+00  0.000E+00  1.06158E+03  1.036E+00  6.145E+00  1.844E-02  1.518E+00
   1    5   10     4     1    1.0000E+01  9.0919E-02   9.9091E+00  0.000E+00  0.000E+00  0.000E+00  1.07836E+03  6.368E-01  1.000E+01  2.500E-02  1.212E+00
   1    5    9     4     2    9.9091E+00  1.8158E-01   9.7275E+00  0.000E+00  0.000E+00  0.000E+00  1.07154E+03  6.315E-01  1.000E+01  5.000E-02  1.211E+00
   1    6    8     4     3    9.7275E+00  1.2689E-01   9.6006E+00  0.000E+00  0.000E+00  0.000E+00  1.06381E+03  6.256E-01  1.000E+01  3.500E-02  1.209E+00
   1    6    8     5     1    1.0432E+01  2.2686E-01   1.0205E+01  0.000E+00  0.000E+00  0.000E+00  1.05868E+03  6.790E-01  1.542E+01  6.166E-02  1.226E+00
   1    7    7     5     2    1.0205E+01  2.7894E-01   9.9265E+00  0.000E+00  0.000E+00  0.000E+00  1.05417E+03  6.732E-01  1.519E+01  7.594E-02  1.224E+00
   1    8    7     5     3    9.9265E+00  1.9221E-01   9.7343E+00  0.000E+00  0.000E+00  0.000E+00  1.04992E+03  6.676E-01  1.497E+01  5.241E-02  1.223E+00
   1    8    6     5     4    9.7343E+00  1.3577E-01   9.5985E+00  0.000E+00  0.000E+00  0.000E+00  1.04691E+03  6.637E-01  1.482E+01  3.706E-02  1.221E+00
   1    9    6     6     1    1.3782E+01  2.3125E-01   1.3550E+01  0.000E+00  0.000E+00  0.000E+00  1.04358E+03  8.541E-01  1.200E+01  6.000E-02  1.285E+00
   1   10    7     6     2    1.3550E+01  2.3073E-01   1.3320E+01  0.000E+00  0.000E+00  0.000E+00  1.03903E+03  8.455E-01  1.200E+01  6.000E-02  1.282E+00
   1   11    7     6     3    1.3320E+01  2.3021E-01   1.3090E+01  0.000E+00  0.000E+00  0.000E+00  1.03447E+03  8.368E-01  1.200E+01  6.000E-02  1.279E+00
   1   12    7     6     4    1.3090E+01  2.2969E-01   1.2860E+01  0.000E+00  0.000E+00  0.000E+00  1.02992E+03  8.281E-01  1.200E+01  6.000E-02  1.276E+00
   1   13    7     6     5    1.2860E+01 -3.1190E-02   1.2891E+01  0.000E+00  0.000E+00  0.000E+00  1.02673E+03  8.244E-01  1.200E+01  2.400E-01 -4.332E-02
   1   14    9     7     1    1.5000E+02  1.3678E+00   1.4863E+02  0.000E+00  0.000E+00  0.000E+00  1.03987E+03  2.288E+00  5.529E+01  5.593E-01  8.152E-01
   1   13    8     7     2    1.4863E+02  1.9153E+00   1.4672E+02  0.000E+00  0.000E+00  0.000E+00  1.03478E+03  2.279E+00  5.526E+01  6.148E-01  1.038E+00
   1   13    7     7     3    1.4672E+02  1.5778E+00   1.4514E+02  0.000E+00  0.000E+00  0.000E+00  1.02969E+03  2.270E+00  5.521E+01  5.584E-01  9.418E-01
   1   13    6     8     1    1.5803E+02  9.4770E-01   1.5708E+02  0.000E+00  0.000E+00  0.000E+00  1.02474E+03  2.870E+00  4.162E+01  4.241E-01  7.449E-01
   1   13    5     8     2    1.5708E+02  2.0118E-01   1.5688E+02  0.000E+00  0.000E+00  0.000E+00  1.01849E+03  2.866E+00  4.156E+01  4.235E-01  1.583E-01
   1   13    4     8     3    1.5688E+02 -2.5186E+00   1.5940E+02  0.000E+00  0.000E+00  0.000E+00  1.01225E+03  2.874E+00  4.167E+01  4.247E+00 -1.977E-01
   1   13    3     8     4    1.5940E+02 -3.7908E+00   1.6319E+02  0.000E+00  0.000E+00  0.000E+00  1.00602E+03  2.895E+00  4.198E+01  4.278E+00 -2.954E-01
   1   13    2     8     5    1.6319E+02 -2.8105E+00   1.6600E+02  0.000E+00  0.000E+00  0.000E+00  9.99792E+02  2.917E+00  4.230E+01  4.311E+00 -2.173E-01
   1   13    1     8     6    1.6600E+02 -2.1206E+00   1.6812E+02  0.000E+00  0.000E+00  0.000E+00  9.94809E+02  2.934E+00  4.254E+01  2.601E+00 -2.718E-01
   1    8    6     9     1    2.2205E+01  0.0000E+00   2.2205E+01  0.000E+00  0.000E+00  0.000E+00  1.08240E+03  3.646E+00  4.000E+00  0.000E+00  2.215E+00
   1    8    5     9     2    2.2205E+01  0.0000E+00   2.2205E+01  0.000E+00  0.000E+00  0.000E+00  1.08190E+03  3.646E+00  4.000E+00  0.000E+00  2.215E+00



 UBDSV3 SAVING "           GW ET" ON UNIT  61 AT TIME STEP  5, STRESS PERIOD   7
 UBDSV3 SAVING "    UZF RECHARGE" ON UNIT  61 AT TIME STEP  5, STRESS PERIOD   7
 UBDSV3 SAVING " SURFACE LEAKAGE" ON UNIT  61 AT TIME STEP  5, STRESS PERIOD   7
 UBDSV3 SAVING "       HORT+DUNN" ON UNIT  61 AT TIME STEP  5, STRESS PERIOD   7
 UBDSV3 SAVING "  STORAGE CHANGE" ON UNIT  61 AT TIME STEP  5, STRESS PERIOD   7


UNSATURATED ZONE PACKAGE VOLUMETRIC BUDGET FOR  TIME STEP     5 STRESS PERIOD    7
  ------------------------------------------------------------------------------



     CUMULATIVE VOLUMES      L**3       RATES FOR THIS TIME STEP      L**3/T
     ------------------                 ------------------------

           IN:                                      IN:
           ---                                      ---
        INFILTRATION =    97075987.3333          INFILTRATION =          26.6129

          OUT:                                     OUT:
          ----                                     ----
              UZF ET =    77733420.1719                UZF ET =          26.5508
        UZF RECHARGE =       73224.0000          UZF RECHARGE =       0.0000E+00

            IN - OUT =    19269343.1614              IN - OUT =       6.2136E-02

          STORAGE:                                 STORAGE:
          --------                                 --------
      STORAGE CHANGE =    19269342.6970        STORAGE CHANGE =       6.2136E-02

 PERCENT DISCREPANCY IS DIFFERENCE BETWEEN IN-OUT MINUS CHANGE IN STORAGE
 DIVIDED BY THE AVERAGE OF IN AND OUT TIMES 100

 PERCENT DISCREPANCY =           0.00     PERCENT DISCREPANCY =           0.00






 

            AG WELLS      PERIOD    7   STEP   5
 AG WELL      1   LAYER   1   ROW     6   COL     4   RATE     0.00000    
 AG WELL      2   LAYER   1   ROW     6   COL     5   RATE     0.00000    
 AG WELL      3   LAYER   1   ROW     7   COL     4   RATE     0.00000    
 AG WELL      4   LAYER   1   ROW     7   COL     5   RATE     0.00000    
 AG WELL      5   LAYER   1   ROW     8   COL     4   RATE     0.00000    
 AG WELL      6   LAYER   1   ROW     8   COL     5   RATE     0.00000    
 
 

   DIVERSION SEGMENTS     PERIOD    7   STEP   5
 SEGMENT      9   RATE     22.2050    
 
 

        SW IRRIGATION     PERIOD    7   STEP   5
 SEGMENT      9   ROW     6   COL     4   RATE     3.70090    
 SEGMENT      9   ROW     6   COL     5   RATE     3.70090    
 SEGMENT      9   ROW     7   COL     4   RATE     3.70090    
 SEGMENT      9   ROW     7   COL     5   RATE     3.70090    
 SEGMENT      9   ROW     8   COL     4   RATE     3.70090    
 SEGMENT      9   ROW     8   COL     5   RATE     3.70090    
 
 

        GW IRRIGATION     PERIOD    7   STEP   5
 AG WELL      1   ROW     6   COL     4   RATE     0.00000    
 AG WELL      2   ROW     6   COL     5   RATE     0.00000    
 AG WELL      3   ROW     7   COL     4   RATE     0.00000    
 AG WELL      4   ROW     7   COL     5   RATE     0.00000    
 AG WELL      5   ROW     8   COL     4   RATE     0.00000    
 AG WELL      6   ROW     8   COL     5   RATE     0.00000    
 
1
  VOLUMETRIC BUDGET FOR AGRICULTURAL FIELDS AT  END OF TIME STEP    5, STRESS PERIOD   7
  ------------------------------------------------------------------------------

     CUMULATIVE VOLUMES      L**3       RATES FOR THIS TIME STEP      L**3/T
     ------------------                 ------------------------

           IN:                                      IN:
           ---                                      ---
               AG WELLS  =           0.0000                 AG WELLS  =           0.0000
      DIVERSION SEGMENTS =    37111448.0000        DIVERSION SEGMENTS =          22.2050
           GW IRRIGATION =           0.0000             GW IRRIGATION =           0.0000
           SW IRRIGATION =           0.0000             SW IRRIGATION =           0.0000
        SYSTEM LOSSES GW =           0.0000          SYSTEM LOSSES GW =           0.0000
        SYSTEM LOSSES SW =           0.0000          SYSTEM LOSSES SW =           0.0000

                TOTAL IN =    37111448.0000                  TOTAL IN =          22.2050

          OUT:                                     OUT:
          ----                                     ----
               AG WELLS  =           0.0000                 AG WELLS  =           0.0000
      DIVERSION SEGMENTS =           0.0000        DIVERSION SEGMENTS =           0.0000
           GW IRRIGATION =           0.0000             GW IRRIGATION =           0.0000
           SW IRRIGATION =    37112188.0000             SW IRRIGATION =          22.2054
        SYSTEM LOSSES GW =           0.0000          SYSTEM LOSSES GW =           0.0000
        SYSTEM LOSSES SW =           0.0000          SYSTEM LOSSES SW =           0.0000

               TOTAL OUT =    37112188.0000                 TOTAL OUT =          22.2054

                IN - OUT =        -740.0000                  IN - OUT =      -4.4441E-04

     PERCENT DISCREPANCY =          -0.00         PERCENT DISCREPANCY =          -0.00



1
  VOLUMETRIC BUDGET FOR ENTIRE MODEL AT END OF TIME STEP    5, STRESS PERIOD   7
  ------------------------------------------------------------------------------

     CUMULATIVE VOLUMES      L**3       RATES FOR THIS TIME STEP      L**3/T
     ------------------                 ------------------------

           IN:                                      IN:
           ---                                      ---
             STORAGE     =     8721217.0000               STORAGE     =           1.4259
       CONSTANT HEAD     =           0.0000         CONSTANT HEAD     =           0.0000
     HEAD DEP BOUNDS     =     3936391.0000       HEAD DEP BOUNDS     =           0.2879
      STREAM LEAKAGE     =   161564880.0000        STREAM LEAKAGE     =          12.0700
        UZF RECHARGE     =       73223.9531          UZF RECHARGE     =           0.0000
               GW ET     =           0.0000                 GW ET     =           0.0000
     SURFACE LEAKAGE     =           0.0000       SURFACE LEAKAGE     =           0.0000
           AG WELLS      =           0.0000             AG WELLS      =           0.0000

                TOTAL IN =   174295712.0000                  TOTAL IN =          13.7839

          OUT:                                     OUT:
          ----                                     ----
             STORAGE     =    30903930.0000               STORAGE     =           2.2211
       CONSTANT HEAD     =           0.0000         CONSTANT HEAD     =           0.0000
     HEAD DEP BOUNDS     =     3945696.2500       HEAD DEP BOUNDS     =           0.2897
      STREAM LEAKAGE     =   139441824.0000        STREAM LEAKAGE     =          11.2717
        UZF RECHARGE     =           0.0000          UZF RECHARGE     =           0.0000
               GW ET     =           0.0000                 GW ET     =           0.0000
     SURFACE LEAKAGE     =           0.0000       SURFACE LEAKAGE     =           0.0000
           AG WELLS      =           0.0000             AG WELLS      =           0.0000

               TOTAL OUT =   174291456.0000                 TOTAL OUT =          13.7826

                IN - OUT =        4256.0000                  IN - OUT =       1.2856E-03

     PERCENT DISCREPANCY =           0.00         PERCENT DISCREPANCY =           0.01






         TIME SUMMARY AT END OF TIME STEP    5 IN STRESS PERIOD    7
                    SECONDS     MINUTES      HOURS       DAYS        YEARS
                    -----------------------------------------------------------
   TIME STEP LENGTH  87667.      1461.1      24.352      1.0147     2.77799E-03
 STRESS PERIOD TIME 4.38333E+05  7305.6      121.76      5.0733     1.38899E-02
         TOTAL TIME 1.36747E+07 2.27912E+05  3798.5      158.27     0.43333    
1
 
 SOLVING FOR HEAD 
                                                   Max.-Head-Change                         Max.-Flux-Residual
  Residual-Control   Outer-Iter.   Inner-Iter.     Column Row Layer    Maximum-Head-Change  Column Row Layer    Maximum-Flux-Residual          L2-NORM 
          0                 1           2             4   13     1       0.4000506205E-02       4   13    1         0.2297023214E+00      0.5852504734E+00
          0                 2           2             4   13     1      -0.7292449110E-02       4   13    1        -0.4291279306E+00      0.7488548340E+00
          0                 3           2             4   13     1      -0.4809144420E-03       4   13    1        -0.2828259768E-01      0.5078316078E-01
          0                 4           2             7   13     1      -0.4052839729E-03       7   13    1        -0.2379844690E-01      0.3854166659E-01
          0                 5           2             4   13     1      -0.1488201523E-03       4   13    1        -0.8751654791E-02      0.1554641334E-01
          0                 6           1             4   13     1      -0.7440711087E-04       4   13    1        -0.4375467639E-02      0.7802964408E-02

    ------------------------------------------------
       NWT REQUIRED            6 OUTER ITERATIONS 
       AND A TOTAL OF         11 INNER ITERATIONS.
    ------------------------------------------------

 NO OUTPUT CONTROL FOR STRESS PERIOD    7   TIME STEP    6
 
 SOLVING FOR HEAD 
                                                   Max.-Head-Change                         Max.-Flux-Residual
  Residual-Control   Outer-Iter.   Inner-Iter.     Column Row Layer    Maximum-Head-Change  Column Row Layer    Maximum-Flux-Residual          L2-NORM 
          0                 1           2             4   13     1       0.4441537308E-02       4   13    1         0.2551352110E+00      0.6093634447E+00
          0                 2           2             4   13     1      -0.7349201440E-02       4   13    1        -0.4324796739E+00      0.7537868005E+00
          0                 3           2             2   13     1      -0.4803093162E-03       4   13    1        -0.2824455885E-01      0.5077087974E-01
          0                 4           2             7   13     1      -0.4049259339E-03       7   13    1        -0.2377783379E-01      0.3836501658E-01
          0                 5           2             4   13     1      -0.1479701585E-03       4   13    1        -0.8701667627E-02      0.1545537843E-01
          0                 6           1             4   13     1      -0.7397992089E-04       4   13    1        -0.4350364865E-02      0.7755090454E-02

    ------------------------------------------------
       NWT REQUIRED            6 OUTER ITERATIONS 
       AND A TOTAL OF         11 INNER ITERATIONS.
    ------------------------------------------------

 NO OUTPUT CONTROL FOR STRESS PERIOD    7   TIME STEP    7
 
 SOLVING FOR HEAD 
                                                   Max.-Head-Change                         Max.-Flux-Residual
  Residual-Control   Outer-Iter.   Inner-Iter.     Column Row Layer    Maximum-Head-Change  Column Row Layer    Maximum-Flux-Residual          L2-NORM 
          0                 1           2             4   13     1       0.4840571773E-02       4   13    1         0.2781386420E+00      0.6327955415E+00
          0                 2           2             4   13     1      -0.7401089275E-02       4   13    1        -0.4355431744E+00      0.7583624518E+00
          0                 3           2             2   13     1      -0.4804439561E-03       4   13    1        -0.2820467781E-01      0.5076150100E-01
          0                 4           2             7   13     1      -0.4045720837E-03       7   13    1        -0.2375745641E-01      0.3818910146E-01
          0                 5           2             4   13     1      -0.1470911295E-03       4   13    1        -0.8649970537E-02      0.1536186040E-01
          0                 6           1             4   13     1      -0.7354388394E-04       4   13    1        -0.4324775149E-02      0.7704876220E-02

    ------------------------------------------------
       NWT REQUIRED            6 OUTER ITERATIONS 
       AND A TOTAL OF         11 INNER ITERATIONS.
    ------------------------------------------------

 NO OUTPUT CONTROL FOR STRESS PERIOD    7   TIME STEP    8
 
 SOLVING FOR HEAD 
                                                   Max.-Head-Change                         Max.-Flux-Residual
  Residual-Control   Outer-Iter.   Inner-Iter.     Column Row Layer    Maximum-Head-Change  Column Row Layer    Maximum-Flux-Residual          L2-NORM 
          0                 1           2             4   13     1       0.5201744571E-02       4   13    1         0.2989523214E+00      0.6552993999E+00
          0                 2           2             4   13     1      -0.7448151200E-02       4   13    1        -0.4383207317E+00      0.7626003913E+00
          0                 3           2             2   13     1      -0.4805275359E-03       4   13    1        -0.2819264898E-01      0.5076557243E-01
          0                 4           2             7   13     1      -0.4042212215E-03       7   13    1        -0.2373725413E-01      0.3801271474E-01
          0                 5           2             4   13     1      -0.1462425927E-03       4   13    1        -0.8600079169E-02      0.1526867486E-01
          0                 6           1             4   13     1      -0.7309888897E-04       4   13    1        -0.4298552923E-02      0.7659881404E-02

    ------------------------------------------------
       NWT REQUIRED            6 OUTER ITERATIONS 
       AND A TOTAL OF         11 INNER ITERATIONS.
    ------------------------------------------------

 NO OUTPUT CONTROL FOR STRESS PERIOD    7   TIME STEP    9
 
 SOLVING FOR HEAD 
                                                   Max.-Head-Change                         Max.-Flux-Residual
  Residual-Control   Outer-Iter.   Inner-Iter.     Column Row Layer    Maximum-Head-Change  Column Row Layer    Maximum-Flux-Residual          L2-NORM 
          0                 1           2             4   13     1       0.5528680988E-02       4   13    1         0.3177867073E+00      0.6767018740E+00
          0                 2           2             4   13     1      -0.7491242382E-02       4   13    1        -0.4408631389E+00      0.7665376150E+00
          0                 3           2             2   13     1      -0.4806925062E-03       4   13    1        -0.2818029729E-01      0.5077407376E-01
          0                 4           2             7   13     1      -0.4038762279E-03       7   13    1        -0.2371738937E-01      0.3783625036E-01
          0                 5           2             4   13     1      -0.1453423481E-03       4   13    1        -0.8547199591E-02      0.1517343256E-01
          0                 6           1             4   13     1      -0.7264051767E-04       4   13    1        -0.4271623380E-02      0.7612394261E-02

    ------------------------------------------------
       NWT REQUIRED            6 OUTER ITERATIONS 
       AND A TOTAL OF         11 INNER ITERATIONS.
    ------------------------------------------------

 OUTPUT CONTROL FOR STRESS PERIOD    7   TIME STEP   10
    PRINT BUDGET
    SAVE BUDGET
 UBDSV1 SAVING "         STORAGE" ON UNIT 102 AT TIME STEP 10, STRESS PERIOD   7
 UBDSV2 SAVING "   CONSTANT HEAD" ON UNIT 102 AT TIME STEP 10, STRESS PERIOD   7
 UBDSV1 SAVING "FLOW RIGHT FACE " ON UNIT 102 AT TIME STEP 10, STRESS PERIOD   7
 UBDSV1 SAVING "FLOW FRONT FACE " ON UNIT 102 AT TIME STEP 10, STRESS PERIOD   7

  HEAD DEP BOUNDS   PERIOD    7   STEP    10
 BOUNDARY      1   LAYER   1   ROW    13   COL     1   RATE   -0.289246    
 BOUNDARY      2   LAYER   1   ROW    14   COL     9   RATE    0.287939    



 STREAM LISTING     PERIOD      7   STEP       10

 LAYER ROW COL. STREAM  RCH.  FLOW INTO     FLOW TO   FLOW OUT OF   OVRLND.     DIRECT     STREAM       STREAM     STREAM     STREAM   STREAMBED  STREAMBED
                SEG.NO.  NO.  STRM. RCH.    AQUIFER    STRM. RCH.    RUNOFF     PRECIP       ET          HEAD       DEPTH      WIDTH   CONDCTNC.   GRADIENT

   1    1    1     1     1    3.1125E+01  2.7165E-01   3.0853E+01  0.000E+00  0.000E+00  0.000E+00  1.09431E+03  1.259E+00  1.417E+01  6.378E-02  1.420E+00
   1    2    2     1     2    3.0853E+01  4.2045E-01   3.0433E+01  0.000E+00  0.000E+00  0.000E+00  1.08931E+03  1.256E+00  1.411E+01  9.879E-02  1.419E+00
   1    3    3     1     3    3.0433E+01  3.5834E-01   3.0075E+01  0.000E+00  0.000E+00  0.000E+00  1.08367E+03  1.252E+00  1.404E+01  8.427E-02  1.417E+00
   1    3    4     1     4    3.0075E+01  3.2976E-01   2.9745E+01  0.000E+00  0.000E+00  0.000E+00  1.07866E+03  1.249E+00  1.398E+01  7.761E-02  1.416E+00
   1    4    5     2     1    2.7745E+01  3.3390E-01   2.7411E+01  0.000E+00  0.000E+00  0.000E+00  1.07321E+03  1.281E+00  1.200E+01  7.800E-02  1.427E+00
   1    5    6     2     2    2.7411E+01  2.5635E-01   2.7155E+01  0.000E+00  0.000E+00  0.000E+00  1.06778E+03  1.273E+00  1.200E+01  6.000E-02  1.424E+00
   1    6    6     2     3    2.7155E+01  2.5592E-01   2.6899E+01  0.000E+00  0.000E+00  0.000E+00  1.06306E+03  1.265E+00  1.200E+01  6.000E-02  1.422E+00
   1    7    6     2     4    2.6899E+01  2.5549E-01   2.6643E+01  0.000E+00  0.000E+00  0.000E+00  1.05833E+03  1.258E+00  1.200E+01  6.000E-02  1.419E+00
   1    8    6     2     5    2.6643E+01  2.5506E-01   2.6388E+01  0.000E+00  0.000E+00  0.000E+00  1.05361E+03  1.251E+00  1.200E+01  6.000E-02  1.417E+00
   1    3    5     3     1    2.0000E+00  2.8252E-01   1.7175E+00  0.000E+00  0.000E+00  0.000E+00  1.07555E+03  1.909E+00  9.636E+00  7.227E-02  1.955E+00
   1    3    6     3     2    1.7175E+00  2.4905E-01   1.4684E+00  0.000E+00  0.000E+00  0.000E+00  1.07264E+03  1.727E+00  8.909E+00  6.682E-02  1.864E+00
   1    3    7     3     3    1.4684E+00  1.9718E-01   1.2712E+00  0.000E+00  0.000E+00  0.000E+00  1.06987E+03  1.555E+00  8.218E+00  5.547E-02  1.777E+00
   1    4    8     3     4    1.2712E+00  2.2567E-01   1.0456E+00  0.000E+00  0.000E+00  0.000E+00  1.06682E+03  1.364E+00  7.455E+00  6.709E-02  1.682E+00
   1    5    8     3     5    1.0456E+00  1.5790E-01   8.8768E-01  0.000E+00  0.000E+00  0.000E+00  1.06362E+03  1.164E+00  6.655E+00  4.991E-02  1.582E+00
   1    6    8     3     6    8.8768E-01  5.5980E-02   8.3170E-01  0.000E+00  0.000E+00  0.000E+00  1.06158E+03  1.036E+00  6.145E+00  1.844E-02  1.518E+00
   1    5   10     4     1    1.0000E+01  9.0919E-02   9.9091E+00  0.000E+00  0.000E+00  0.000E+00  1.07836E+03  6.368E-01  1.000E+01  2.500E-02  1.212E+00
   1    5    9     4     2    9.9091E+00  1.8158E-01   9.7275E+00  0.000E+00  0.000E+00  0.000E+00  1.07154E+03  6.315E-01  1.000E+01  5.000E-02  1.211E+00
   1    6    8     4     3    9.7275E+00  1.2689E-01   9.6006E+00  0.000E+00  0.000E+00  0.000E+00  1.06381E+03  6.256E-01  1.000E+01  3.500E-02  1.209E+00
   1    6    8     5     1    1.0432E+01  2.2686E-01   1.0205E+01  0.000E+00  0.000E+00  0.000E+00  1.05868E+03  6.790E-01  1.542E+01  6.166E-02  1.226E+00
   1    7    7     5     2    1.0205E+01  2.7894E-01   9.9265E+00  0.000E+00  0.000E+00  0.000E+00  1.05417E+03  6.732E-01  1.519E+01  7.594E-02  1.224E+00
   1    8    7     5     3    9.9265E+00  1.9221E-01   9.7343E+00  0.000E+00  0.000E+00  0.000E+00  1.04992E+03  6.676E-01  1.497E+01  5.241E-02  1.223E+00
   1    8    6     5     4    9.7343E+00  1.3577E-01   9.5985E+00  0.000E+00  0.000E+00  0.000E+00  1.04691E+03  6.637E-01  1.482E+01  3.706E-02  1.221E+00
   1    9    6     6     1    1.3777E+01  2.3123E-01   1.3546E+01  0.000E+00  0.000E+00  0.000E+00  1.04358E+03  8.538E-01  1.200E+01  6.000E-02  1.285E+00
   1   10    7     6     2    1.3546E+01  2.3071E-01   1.3315E+01  0.000E+00  0.000E+00  0.000E+00  1.03903E+03  8.452E-01  1.200E+01  6.000E-02  1.282E+00
   1   11    7     6     3    1.3315E+01  2.3019E-01   1.3085E+01  0.000E+00  0.000E+00  0.000E+00  1.03447E+03  8.365E-01  1.200E+01  6.000E-02  1.279E+00
   1   12    7     6     4    1.3085E+01  2.2967E-01   1.2856E+01  0.000E+00  0.000E+00  0.000E+00  1.02992E+03  8.278E-01  1.200E+01  6.000E-02  1.276E+00
   1   13    7     6     5    1.2856E+01 -3.0886E-02   1.2886E+01  0.000E+00  0.000E+00  0.000E+00  1.02673E+03  8.240E-01  1.200E+01  2.400E-01 -4.290E-02
   1   14    9     7     1    1.5000E+02  1.3678E+00   1.4863E+02  0.000E+00  0.000E+00  0.000E+00  1.03987E+03  2.288E+00  5.529E+01  5.593E-01  8.152E-01
   1   13    8     7     2    1.4863E+02  1.9151E+00   1.4672E+02  0.000E+00  0.000E+00  0.000E+00  1.03478E+03  2.279E+00  5.526E+01  6.148E-01  1.038E+00
   1   13    7     7     3    1.4672E+02  1.5787E+00   1.4514E+02  0.000E+00  0.000E+00  0.000E+00  1.02969E+03  2.270E+00  5.521E+01  5.584E-01  9.424E-01
   1   13    6     8     1    1.5802E+02  9.4947E-01   1.5708E+02  0.000E+00  0.000E+00  0.000E+00  1.02474E+03  2.870E+00  4.161E+01  4.241E-01  7.463E-01
   1   13    5     8     2    1.5708E+02  2.0276E-01   1.5687E+02  0.000E+00  0.000E+00  0.000E+00  1.01849E+03  2.866E+00  4.156E+01  4.235E-01  1.596E-01
   1   13    4     8     3    1.5687E+02 -2.4435E+00   1.5932E+02  0.000E+00  0.000E+00  0.000E+00  1.01225E+03  2.874E+00  4.167E+01  4.246E+00 -1.918E-01
   1   13    3     8     4    1.5932E+02 -3.7198E+00   1.6304E+02  0.000E+00  0.000E+00  0.000E+00  1.00602E+03  2.895E+00  4.197E+01  4.277E+00 -2.899E-01
   1   13    2     8     5    1.6304E+02 -2.7325E+00   1.6577E+02  0.000E+00  0.000E+00  0.000E+00  9.99791E+02  2.916E+00  4.228E+01  4.309E+00 -2.114E-01
   1   13    1     8     6    1.6577E+02 -2.0917E+00   1.6786E+02  0.000E+00  0.000E+00  0.000E+00  9.94807E+02  2.932E+00  4.251E+01  2.599E+00 -2.682E-01
   1    8    6     9     1    2.2209E+01  0.0000E+00   2.2209E+01  0.000E+00  0.000E+00  0.000E+00  1.08240E+03  3.647E+00  4.000E+00  0.000E+00  2.216E+00
   1    8    5     9     2    2.2209E+01  0.0000E+00   2.2209E+01  0.000E+00  0.000E+00  0.000E+00  1.08190E+03  3.647E+00  4.000E+00  0.000E+00  2.216E+00



 UBDSV3 SAVING "           GW ET" ON UNIT  61 AT TIME STEP 10, STRESS PERIOD   7
 UBDSV3 SAVING "    UZF RECHARGE" ON UNIT  61 AT TIME STEP 10, STRESS PERIOD   7
 UBDSV3 SAVING " SURFACE LEAKAGE" ON UNIT  61 AT TIME STEP 10, STRESS PERIOD   7
 UBDSV3 SAVING "       HORT+DUNN" ON UNIT  61 AT TIME STEP 10, STRESS PERIOD   7
 UBDSV3 SAVING "  STORAGE CHANGE" ON UNIT  61 AT TIME STEP 10, STRESS PERIOD   7


UNSATURATED ZONE PACKAGE VOLUMETRIC BUDGET FOR  TIME STEP    10 STRESS PERIOD    7
  ------------------------------------------------------------------------------



     CUMULATIVE VOLUMES      L**3       RATES FOR THIS TIME STEP      L**3/T
     ------------------                 ------------------------

           IN:                                      IN:
           ---                                      ---
        INFILTRATION =   108742449.1487          INFILTRATION =          26.6173

          OUT:                                     OUT:
          ----                                     ----
              UZF ET =    89372069.1748                UZF ET =          26.5529
        UZF RECHARGE =       73224.0000          UZF RECHARGE =       0.0000E+00

            IN - OUT =    19297155.9739              IN - OUT =       6.4467E-02

          STORAGE:                                 STORAGE:
          --------                                 --------
      STORAGE CHANGE =    19297155.4921        STORAGE CHANGE =       6.4467E-02

 PERCENT DISCREPANCY IS DIFFERENCE BETWEEN IN-OUT MINUS CHANGE IN STORAGE
 DIVIDED BY THE AVERAGE OF IN AND OUT TIMES 100

 PERCENT DISCREPANCY =           0.00     PERCENT DISCREPANCY =           0.00






 

            AG WELLS      PERIOD    7   STEP  10
 AG WELL      1   LAYER   1   ROW     6   COL     4   RATE     0.00000    
 AG WELL      2   LAYER   1   ROW     6   COL     5   RATE     0.00000    
 AG WELL      3   LAYER   1   ROW     7   COL     4   RATE     0.00000    
 AG WELL      4   LAYER   1   ROW     7   COL     5   RATE     0.00000    
 AG WELL      5   LAYER   1   ROW     8   COL     4   RATE     0.00000    
 AG WELL      6   LAYER   1   ROW     8   COL     5   RATE     0.00000    
 
 

   DIVERSION SEGMENTS     PERIOD    7   STEP  10
 SEGMENT      9   RATE     22.2094    
 
 

        SW IRRIGATION     PERIOD    7   STEP  10
 SEGMENT      9   ROW     6   COL     4   RATE     3.70164    
 SEGMENT      9   ROW     6   COL     5   RATE     3.70164    
 SEGMENT      9   ROW     7   COL     4   RATE     3.70164    
 SEGMENT      9   ROW     7   COL     5   RATE     3.70164    
 SEGMENT      9   ROW     8   COL     4   RATE     3.70164    
 SEGMENT      9   ROW     8   COL     5   RATE     3.70164    
 
 

        GW IRRIGATION     PERIOD    7   STEP  10
 AG WELL      1   ROW     6   COL     4   RATE     0.00000    
 AG WELL      2   ROW     6   COL     5   RATE     0.00000    
 AG WELL      3   ROW     7   COL     4   RATE     0.00000    
 AG WELL      4   ROW     7   COL     5   RATE     0.00000    
 AG WELL      5   ROW     8   COL     4   RATE     0.00000    
 AG WELL      6   ROW     8   COL     5   RATE     0.00000    
 
1
  VOLUMETRIC BUDGET FOR AGRICULTURAL FIELDS AT  END OF TIME STEP   10, STRESS PERIOD   7
  ------------------------------------------------------------------------------

     CUMULATIVE VOLUMES      L**3       RATES FOR THIS TIME STEP      L**3/T
     ------------------                 ------------------------

           IN:                                      IN:
           ---                                      ---
               AG WELLS  =           0.0000                 AG WELLS  =           0.0000
      DIVERSION SEGMENTS =    46845764.0000        DIVERSION SEGMENTS =          22.2094
           GW IRRIGATION =           0.0000             GW IRRIGATION =           0.0000
           SW IRRIGATION =           0.0000             SW IRRIGATION =           0.0000
        SYSTEM LOSSES GW =           0.0000          SYSTEM LOSSES GW =           0.0000
        SYSTEM LOSSES SW =           0.0000          SYSTEM LOSSES SW =           0.0000

                TOTAL IN =    46845764.0000                  TOTAL IN =          22.2094

          OUT:                                     OUT:
          ----                                     ----
               AG WELLS  =           0.0000                 AG WELLS  =           0.0000
      DIVERSION SEGMENTS =           0.0000        DIVERSION SEGMENTS =           0.0000
           GW IRRIGATION =           0.0000             GW IRRIGATION =           0.0000
           SW IRRIGATION =    46846696.0000             SW IRRIGATION =          22.2098
        SYSTEM LOSSES GW =           0.0000          SYSTEM LOSSES GW =           0.0000
        SYSTEM LOSSES SW =           0.0000          SYSTEM LOSSES SW =           0.0000

               TOTAL OUT =    46846696.0000                 TOTAL OUT =          22.2098

                IN - OUT =        -932.0000                  IN - OUT =      -4.4250E-04

     PERCENT DISCREPANCY =          -0.00         PERCENT DISCREPANCY =          -0.00



1
  VOLUMETRIC BUDGET FOR ENTIRE MODEL AT END OF TIME STEP   10, STRESS PERIOD   7
  ------------------------------------------------------------------------------

     CUMULATIVE VOLUMES      L**3       RATES FOR THIS TIME STEP      L**3/T
     ------------------                 ------------------------

           IN:                                      IN:
           ---                                      ---
             STORAGE     =     9263678.0000               STORAGE     =           1.1293
       CONSTANT HEAD     =           0.0000         CONSTANT HEAD     =           0.0000
     HEAD DEP BOUNDS     =     4062603.5000       HEAD DEP BOUNDS     =           0.2879
      STREAM LEAKAGE     =   166856624.0000        STREAM LEAKAGE     =          12.0741
        UZF RECHARGE     =       73223.9531          UZF RECHARGE     =           0.0000
               GW ET     =           0.0000                 GW ET     =           0.0000
     SURFACE LEAKAGE     =           0.0000       SURFACE LEAKAGE     =           0.0000
           AG WELLS      =           0.0000             AG WELLS      =           0.0000

                TOTAL IN =   180256128.0000                  TOTAL IN =          13.4913

          OUT:                                     OUT:
          ----                                     ----
             STORAGE     =    31866186.0000               STORAGE     =           2.1823
       CONSTANT HEAD     =           0.0000         CONSTANT HEAD     =           0.0000
     HEAD DEP BOUNDS     =     4072561.5000       HEAD DEP BOUNDS     =           0.2892
      STREAM LEAKAGE     =   144312592.0000        STREAM LEAKAGE     =          11.0185
        UZF RECHARGE     =           0.0000          UZF RECHARGE     =           0.0000
               GW ET     =           0.0000                 GW ET     =           0.0000
     SURFACE LEAKAGE     =           0.0000       SURFACE LEAKAGE     =           0.0000
           AG WELLS      =           0.0000             AG WELLS      =           0.0000

               TOTAL OUT =   180251344.0000                 TOTAL OUT =          13.4901

                IN - OUT =        4784.0000                  IN - OUT =       1.2465E-03

     PERCENT DISCREPANCY =           0.00         PERCENT DISCREPANCY =           0.01






         TIME SUMMARY AT END OF TIME STEP   10 IN STRESS PERIOD    7
                    SECONDS     MINUTES      HOURS       DAYS        YEARS
                    -----------------------------------------------------------
   TIME STEP LENGTH  87667.      1461.1      24.352      1.0147     2.77799E-03
 STRESS PERIOD TIME 8.76667E+05  14611.      243.52      10.147     2.77799E-02
         TOTAL TIME 1.41131E+07 2.35218E+05  3920.3      163.35     0.44722    
1
 
 SOLVING FOR HEAD 
                                                   Max.-Head-Change                         Max.-Flux-Residual
  Residual-Control   Outer-Iter.   Inner-Iter.     Column Row Layer    Maximum-Head-Change  Column Row Layer    Maximum-Flux-Residual          L2-NORM 
          0                 1           2             4   13     1       0.5824715328E-02       4   13    1         0.3348346826E+00      0.6969287149E+00
          0                 2           2             4   13     1      -0.7530652806E-02       4   13    1        -0.4431875706E+00      0.7701963421E+00
          0                 3           2             2   13     1      -0.4808955575E-03       4   13    1        -0.2817092535E-01      0.5078568403E-01
          0                 4           2             7   13     1      -0.4035462342E-03       7   13    1        -0.2369840266E-01      0.3766054971E-01
          0                 5           2             4   13     1      -0.1444661853E-03       4   13    1        -0.8495673169E-02      0.1507886467E-01
          0                 6           1             4   13     1      -0.7217872863E-04       4   13    1        -0.4244459727E-02      0.7563911027E-02

    ------------------------------------------------
       NWT REQUIRED            6 OUTER ITERATIONS 
       AND A TOTAL OF         11 INNER ITERATIONS.
    ------------------------------------------------

 NO OUTPUT CONTROL FOR STRESS PERIOD    7   TIME STEP   11
 
 SOLVING FOR HEAD 
                                                   Max.-Head-Change                         Max.-Flux-Residual
  Residual-Control   Outer-Iter.   Inner-Iter.     Column Row Layer    Maximum-Head-Change  Column Row Layer    Maximum-Flux-Residual          L2-NORM 
          0                 1           2             4   13     1       0.6093016039E-02       4   13    1         0.3502801034E+00      0.7159607959E+00
          0                 2           2             4   13     1      -0.7566729957E-02       4   13    1        -0.4453146881E+00      0.7735992179E+00
          0                 3           2             2   13     1      -0.4811001631E-03       4   13    1        -0.2816695591E-01      0.5080078958E-01
          0                 4           2             7   13     1      -0.4032082030E-03       7   13    1        -0.2367893557E-01      0.3748276233E-01
          0                 5           2             4   13     1      -0.1435807503E-03       4   13    1        -0.8443583437E-02      0.1498669767E-01
          0                 6           1             4   13     1      -0.7174304484E-04       4   13    1        -0.4218852402E-02      0.7516493110E-02

    ------------------------------------------------
       NWT REQUIRED            6 OUTER ITERATIONS 
       AND A TOTAL OF         11 INNER ITERATIONS.
    ------------------------------------------------

 NO OUTPUT CONTROL FOR STRESS PERIOD    7   TIME STEP   12
 
 SOLVING FOR HEAD 
                                                   Max.-Head-Change                         Max.-Flux-Residual
  Residual-Control   Outer-Iter.   Inner-Iter.     Column Row Layer    Maximum-Head-Change  Column Row Layer    Maximum-Flux-Residual          L2-NORM 
          0                 1           2             4   13     1       0.6336223435E-02       4   13    1         0.3642759320E+00      0.7337952481E+00
          0                 2           2             4   13     1      -0.7599796085E-02       4   13    1        -0.4472636178E+00      0.7767656192E+00
          0                 3           2             2   13     1      -0.4813410406E-03       4   13    1        -0.2816741493E-01      0.5081991971E-01
          0                 4           2             7   13     1      -0.4028832560E-03       7   13    1        -0.2366023294E-01      0.3730788921E-01
          0                 5           2             4   13     1      -0.1427036314E-03       4   13    1        -0.8392008898E-02      0.1489339040E-01
          0                 6           1             4   13     1      -0.7126161914E-04       4   13    1        -0.4190529857E-02      0.7466084189E-02

    ------------------------------------------------
       NWT REQUIRED            6 OUTER ITERATIONS 
       AND A TOTAL OF         11 INNER ITERATIONS.
    ------------------------------------------------

 NO OUTPUT CONTROL FOR STRESS PERIOD    7   TIME STEP   13
 
 SOLVING FOR HEAD 
                                                   Max.-Head-Change                         Max.-Flux-Residual
  Residual-Control   Outer-Iter.   Inner-Iter.     Column Row Layer    Maximum-Head-Change  Column Row Layer    Maximum-Flux-Residual          L2-NORM 
          0                 1           2             4   13     1       0.6556701401E-02       4   13    1         0.3769588498E+00      0.7504681568E+00
          0                 2           2             4   13     1      -0.7630125326E-02       4   13    1        -0.4490505834E+00      0.7797152253E+00
          0                 3           2             2   13     1      -0.4815955839E-03       4   13    1        -0.2816988386E-01      0.5084012814E-01
          0                 4           2             7   13     1      -0.4025650652E-03       7   13    1        -0.2364192547E-01      0.3713187887E-01
          0                 5           2             4   13     1      -0.1418611188E-03       4   13    1        -0.8342459087E-02      0.1480279065E-01
          0                 6           1             4   13     1      -0.7079462155E-04       4   13    1        -0.4163054671E-02      0.7418333294E-02

    ------------------------------------------------
       NWT REQUIRED            6 OUTER ITERATIONS 
       AND A TOTAL OF         11 INNER ITERATIONS.
    ------------------------------------------------

 NO OUTPUT CONTROL FOR STRESS PERIOD    7   TIME STEP   14
 
 SOLVING FOR HEAD 
                                                   Max.-Head-Change                         Max.-Flux-Residual
  Residual-Control   Outer-Iter.   Inner-Iter.     Column Row Layer    Maximum-Head-Change  Column Row Layer    Maximum-Flux-Residual          L2-NORM 
          0                 1           2             4   13     1       0.6756806377E-02       4   13    1         0.3884655968E+00      0.7660223374E+00
          0                 2           2             4   13     1      -0.7658005278E-02       4   13    1        -0.4506927059E+00      0.7824661085E+00
          0                 3           2             2   13     1      -0.4818502611E-03       4   13    1        -0.2817710064E-01      0.5086360717E-01
          0                 4           2             7   13     1      -0.4024569187E-03       7   13    1        -0.2363588077E-01      0.3700593276E-01
          0                 5           2             4   13     1      -0.1406278980E-03       4   13    1        -0.8269898577E-02      0.1467711600E-01
          0                 6           1             4   13     1      -0.7027563159E-04       4   13    1        -0.4132544374E-02      0.7362464524E-02

    ------------------------------------------------
       NWT REQUIRED            6 OUTER ITERATIONS 
       AND A TOTAL OF         11 INNER ITERATIONS.
    ------------------------------------------------

 OUTPUT CONTROL FOR STRESS PERIOD    7   TIME STEP   15
    PRINT BUDGET
    SAVE BUDGET
 UBDSV1 SAVING "         STORAGE" ON UNIT 102 AT TIME STEP 15, STRESS PERIOD   7
 UBDSV2 SAVING "   CONSTANT HEAD" ON UNIT 102 AT TIME STEP 15, STRESS PERIOD   7
 UBDSV1 SAVING "FLOW RIGHT FACE " ON UNIT 102 AT TIME STEP 15, STRESS PERIOD   7
 UBDSV1 SAVING "FLOW FRONT FACE " ON UNIT 102 AT TIME STEP 15, STRESS PERIOD   7

  HEAD DEP BOUNDS   PERIOD    7   STEP    15
 BOUNDARY      1   LAYER   1   ROW    13   COL     1   RATE   -0.288863    
 BOUNDARY      2   LAYER   1   ROW    14   COL     9   RATE    0.287942    



 STREAM LISTING     PERIOD      7   STEP       15

 LAYER ROW COL. STREAM  RCH.  FLOW INTO     FLOW TO   FLOW OUT OF   OVRLND.     DIRECT     STREAM       STREAM     STREAM     STREAM   STREAMBED  STREAMBED
                SEG.NO.  NO.  STRM. RCH.    AQUIFER    STRM. RCH.    RUNOFF     PRECIP       ET          HEAD       DEPTH      WIDTH   CONDCTNC.   GRADIENT

   1    1    1     1     1    3.1125E+01  2.7165E-01   3.0853E+01  0.000E+00  0.000E+00  0.000E+00  1.09431E+03  1.259E+00  1.417E+01  6.378E-02  1.420E+00
   1    2    2     1     2    3.0853E+01  4.2045E-01   3.0433E+01  0.000E+00  0.000E+00  0.000E+00  1.08931E+03  1.256E+00  1.411E+01  9.879E-02  1.419E+00
   1    3    3     1     3    3.0433E+01  3.5834E-01   3.0075E+01  0.000E+00  0.000E+00  0.000E+00  1.08367E+03  1.252E+00  1.404E+01  8.427E-02  1.417E+00
   1    3    4     1     4    3.0075E+01  3.2976E-01   2.9745E+01  0.000E+00  0.000E+00  0.000E+00  1.07866E+03  1.249E+00  1.398E+01  7.761E-02  1.416E+00
   1    4    5     2     1    2.7745E+01  3.3390E-01   2.7411E+01  0.000E+00  0.000E+00  0.000E+00  1.07321E+03  1.281E+00  1.200E+01  7.800E-02  1.427E+00
   1    5    6     2     2    2.7411E+01  2.5635E-01   2.7155E+01  0.000E+00  0.000E+00  0.000E+00  1.06778E+03  1.273E+00  1.200E+01  6.000E-02  1.424E+00
   1    6    6     2     3    2.7155E+01  2.5592E-01   2.6899E+01  0.000E+00  0.000E+00  0.000E+00  1.06306E+03  1.265E+00  1.200E+01  6.000E-02  1.422E+00
   1    7    6     2     4    2.6899E+01  2.5549E-01   2.6643E+01  0.000E+00  0.000E+00  0.000E+00  1.05833E+03  1.258E+00  1.200E+01  6.000E-02  1.419E+00
   1    8    6     2     5    2.6643E+01  2.5506E-01   2.6388E+01  0.000E+00  0.000E+00  0.000E+00  1.05361E+03  1.251E+00  1.200E+01  6.000E-02  1.417E+00
   1    3    5     3     1    2.0000E+00  2.8252E-01   1.7175E+00  0.000E+00  0.000E+00  0.000E+00  1.07555E+03  1.909E+00  9.636E+00  7.227E-02  1.955E+00
   1    3    6     3     2    1.7175E+00  2.4905E-01   1.4684E+00  0.000E+00  0.000E+00  0.000E+00  1.07264E+03  1.727E+00  8.909E+00  6.682E-02  1.864E+00
   1    3    7     3     3    1.4684E+00  1.9718E-01   1.2712E+00  0.000E+00  0.000E+00  0.000E+00  1.06987E+03  1.555E+00  8.218E+00  5.547E-02  1.777E+00
   1    4    8     3     4    1.2712E+00  2.2567E-01   1.0456E+00  0.000E+00  0.000E+00  0.000E+00  1.06682E+03  1.364E+00  7.455E+00  6.709E-02  1.682E+00
   1    5    8     3     5    1.0456E+00  1.5790E-01   8.8768E-01  0.000E+00  0.000E+00  0.000E+00  1.06362E+03  1.164E+00  6.655E+00  4.991E-02  1.582E+00
   1    6    8     3     6    8.8768E-01  5.5980E-02   8.3170E-01  0.000E+00  0.000E+00  0.000E+00  1.06158E+03  1.036E+00  6.145E+00  1.844E-02  1.518E+00
   1    5   10     4     1    1.0000E+01  9.0919E-02   9.9091E+00  0.000E+00  0.000E+00  0.000E+00  1.07836E+03  6.368E-01  1.000E+01  2.500E-02  1.212E+00
   1    5    9     4     2    9.9091E+00  1.8158E-01   9.7275E+00  0.000E+00  0.000E+00  0.000E+00  1.07154E+03  6.315E-01  1.000E+01  5.000E-02  1.211E+00
   1    6    8     4     3    9.7275E+00  1.2689E-01   9.6006E+00  0.000E+00  0.000E+00  0.000E+00  1.06381E+03  6.256E-01  1.000E+01  3.500E-02  1.209E+00
   1    6    8     5     1    1.0432E+01  2.2686E-01   1.0205E+01  0.000E+00  0.000E+00  0.000E+00  1.05868E+03  6.790E-01  1.542E+01  6.166E-02  1.226E+00
   1    7    7     5     2    1.0205E+01  2.7894E-01   9.9265E+00  0.000E+00  0.000E+00  0.000E+00  1.05417E+03  6.732E-01  1.519E+01  7.594E-02  1.224E+00
   1    8    7     5     3    9.9265E+00  1.9221E-01   9.7343E+00  0.000E+00  0.000E+00  0.000E+00  1.04992E+03  6.676E-01  1.497E+01  5.241E-02  1.223E+00
   1    8    6     5     4    9.7343E+00  1.3577E-01   9.5985E+00  0.000E+00  0.000E+00  0.000E+00  1.04691E+03  6.637E-01  1.482E+01  3.706E-02  1.221E+00
   1    9    6     6     1    1.3773E+01  2.3121E-01   1.3542E+01  0.000E+00  0.000E+00  0.000E+00  1.04358E+03  8.535E-01  1.200E+01  6.000E-02  1.284E+00
   1   10    7     6     2    1.3542E+01  2.3069E-01   1.3311E+01  0.000E+00  0.000E+00  0.000E+00  1.03903E+03  8.448E-01  1.200E+01  6.000E-02  1.282E+00
   1   11    7     6     3    1.3311E+01  2.3017E-01   1.3081E+01  0.000E+00  0.000E+00  0.000E+00  1.03447E+03  8.362E-01  1.200E+01  6.000E-02  1.279E+00
   1   12    7     6     4    1.3081E+01  2.2965E-01   1.2851E+01  0.000E+00  0.000E+00  0.000E+00  1.02992E+03  8.275E-01  1.200E+01  6.000E-02  1.276E+00
   1   13    7     6     5    1.2851E+01 -3.0610E-02   1.2882E+01  0.000E+00  0.000E+00  0.000E+00  1.02673E+03  8.237E-01  1.200E+01  2.400E-01 -4.251E-02
   1   14    9     7     1    1.5000E+02  1.3679E+00   1.4863E+02  0.000E+00  0.000E+00  0.000E+00  1.03987E+03  2.288E+00  5.529E+01  5.593E-01  8.152E-01
   1   13    8     7     2    1.4863E+02  1.9150E+00   1.4672E+02  0.000E+00  0.000E+00  0.000E+00  1.03478E+03  2.279E+00  5.526E+01  6.148E-01  1.038E+00
   1   13    7     7     3    1.4672E+02  1.5795E+00   1.4514E+02  0.000E+00  0.000E+00  0.000E+00  1.02969E+03  2.270E+00  5.521E+01  5.584E-01  9.429E-01
   1   13    6     8     1    1.5802E+02  9.5098E-01   1.5707E+02  0.000E+00  0.000E+00  0.000E+00  1.02474E+03  2.870E+00  4.161E+01  4.241E-01  7.475E-01
   1   13    5     8     2    1.5707E+02  2.0439E-01   1.5686E+02  0.000E+00  0.000E+00  0.000E+00  1.01849E+03  2.866E+00  4.156E+01  4.235E-01  1.609E-01
   1   13    4     8     3    1.5686E+02 -2.3963E+00   1.5926E+02  0.000E+00  0.000E+00  0.000E+00  1.01225E+03  2.873E+00  4.166E+01  4.246E+00 -1.881E-01
   1   13    3     8     4    1.5926E+02 -3.6723E+00   1.6293E+02  0.000E+00  0.000E+00  0.000E+00  1.00602E+03  2.894E+00  4.196E+01  4.276E+00 -2.863E-01
   1   13    2     8     5    1.6293E+02 -2.6787E+00   1.6561E+02  0.000E+00  0.000E+00  0.000E+00  9.99790E+02  2.915E+00  4.227E+01  4.308E+00 -2.073E-01
   1   13    1     8     6    1.6561E+02 -2.0677E+00   1.6768E+02  0.000E+00  0.000E+00  0.000E+00  9.94806E+02  2.931E+00  4.250E+01  2.598E+00 -2.652E-01
   1    8    6     9     1    2.2214E+01  0.0000E+00   2.2214E+01  0.000E+00  0.000E+00  0.000E+00  1.08240E+03  3.648E+00  4.000E+00  0.000E+00  2.216E+00
   1    8    5     9     2    2.2214E+01  0.0000E+00   2.2214E+01  0.000E+00  0.000E+00  0.000E+00  1.08190E+03  3.648E+00  4.000E+00  0.000E+00  2.216E+00



 UBDSV3 SAVING "           GW ET" ON UNIT  61 AT TIME STEP 15, STRESS PERIOD   7
 UBDSV3 SAVING "    UZF RECHARGE" ON UNIT  61 AT TIME STEP 15, STRESS PERIOD   7
 UBDSV3 SAVING " SURFACE LEAKAGE" ON UNIT  61 AT TIME STEP 15, STRESS PERIOD   7
 UBDSV3 SAVING "       HORT+DUNN" ON UNIT  61 AT TIME STEP 15, STRESS PERIOD   7
 UBDSV3 SAVING "  STORAGE CHANGE" ON UNIT  61 AT TIME STEP 15, STRESS PERIOD   7


UNSATURATED ZONE PACKAGE VOLUMETRIC BUDGET FOR  TIME STEP    15 STRESS PERIOD    7
  ------------------------------------------------------------------------------



     CUMULATIVE VOLUMES      L**3       RATES FOR THIS TIME STEP      L**3/T
     ------------------                 ------------------------

           IN:                                      IN:
           ---                                      ---
        INFILTRATION =   120410892.8079          INFILTRATION =          26.6219

          OUT:                                     OUT:
          ----                                     ----
              UZF ET =   101011605.8027                UZF ET =          26.5549
        UZF RECHARGE =       73224.0000          UZF RECHARGE =       0.0000E+00

            IN - OUT =    19326063.0051              IN - OUT =       6.6971E-02

          STORAGE:                                 STORAGE:
          --------                                 --------
      STORAGE CHANGE =    19326062.4491        STORAGE CHANGE =       6.6972E-02

 PERCENT DISCREPANCY IS DIFFERENCE BETWEEN IN-OUT MINUS CHANGE IN STORAGE
 DIVIDED BY THE AVERAGE OF IN AND OUT TIMES 100

 PERCENT DISCREPANCY =           0.00     PERCENT DISCREPANCY =           0.00






 

            AG WELLS      PERIOD    7   STEP  15
 AG WELL      1   LAYER   1   ROW     6   COL     4   RATE     0.00000    
 AG WELL      2   LAYER   1   ROW     6   COL     5   RATE     0.00000    
 AG WELL      3   LAYER   1   ROW     7   COL     4   RATE     0.00000    
 AG WELL      4   LAYER   1   ROW     7   COL     5   RATE     0.00000    
 AG WELL      5   LAYER   1   ROW     8   COL     4   RATE     0.00000    
 AG WELL      6   LAYER   1   ROW     8   COL     5   RATE     0.00000    
 
 

   DIVERSION SEGMENTS     PERIOD    7   STEP  15
 SEGMENT      9   RATE     22.2139    
 
 

        SW IRRIGATION     PERIOD    7   STEP  15
 SEGMENT      9   ROW     6   COL     4   RATE     3.70240    
 SEGMENT      9   ROW     6   COL     5   RATE     3.70240    
 SEGMENT      9   ROW     7   COL     4   RATE     3.70240    
 SEGMENT      9   ROW     7   COL     5   RATE     3.70240    
 SEGMENT      9   ROW     8   COL     4   RATE     3.70240    
 SEGMENT      9   ROW     8   COL     5   RATE     3.70240    
 
 

        GW IRRIGATION     PERIOD    7   STEP  15
 AG WELL      1   ROW     6   COL     4   RATE     0.00000    
 AG WELL      2   ROW     6   COL     5   RATE     0.00000    
 AG WELL      3   ROW     7   COL     4   RATE     0.00000    
 AG WELL      4   ROW     7   COL     5   RATE     0.00000    
 AG WELL      5   ROW     8   COL     4   RATE     0.00000    
 AG WELL      6   ROW     8   COL     5   RATE     0.00000    
 
1
  VOLUMETRIC BUDGET FOR AGRICULTURAL FIELDS AT  END OF TIME STEP   15, STRESS PERIOD   7
  ------------------------------------------------------------------------------

     CUMULATIVE VOLUMES      L**3       RATES FOR THIS TIME STEP      L**3/T
     ------------------                 ------------------------

           IN:                                      IN:
           ---                                      ---
               AG WELLS  =           0.0000                 AG WELLS  =           0.0000
      DIVERSION SEGMENTS =    56582060.0000        DIVERSION SEGMENTS =          22.2139
           GW IRRIGATION =           0.0000             GW IRRIGATION =           0.0000
           SW IRRIGATION =           0.0000             SW IRRIGATION =           0.0000
        SYSTEM LOSSES GW =           0.0000          SYSTEM LOSSES GW =           0.0000
        SYSTEM LOSSES SW =           0.0000          SYSTEM LOSSES SW =           0.0000

                TOTAL IN =    56582060.0000                  TOTAL IN =          22.2139

          OUT:                                     OUT:
          ----                                     ----
               AG WELLS  =           0.0000                 AG WELLS  =           0.0000
      DIVERSION SEGMENTS =           0.0000        DIVERSION SEGMENTS =           0.0000
           GW IRRIGATION =           0.0000             GW IRRIGATION =           0.0000
           SW IRRIGATION =    56583184.0000             SW IRRIGATION =          22.2144
        SYSTEM LOSSES GW =           0.0000          SYSTEM LOSSES GW =           0.0000
        SYSTEM LOSSES SW =           0.0000          SYSTEM LOSSES SW =           0.0000

               TOTAL OUT =    56583184.0000                 TOTAL OUT =          22.2144

                IN - OUT =       -1124.0000                  IN - OUT =      -4.4250E-04

     PERCENT DISCREPANCY =          -0.00         PERCENT DISCREPANCY =          -0.00



1
  VOLUMETRIC BUDGET FOR ENTIRE MODEL AT END OF TIME STEP   15, STRESS PERIOD   7
  ------------------------------------------------------------------------------

     CUMULATIVE VOLUMES      L**3       RATES FOR THIS TIME STEP      L**3/T
     ------------------                 ------------------------

           IN:                                      IN:
           ---                                      ---
             STORAGE     =     9704175.0000               STORAGE     =           0.9314
       CONSTANT HEAD     =           0.0000         CONSTANT HEAD     =           0.0000
     HEAD DEP BOUNDS     =     4188817.5000       HEAD DEP BOUNDS     =           0.2879
      STREAM LEAKAGE     =   172150112.0000        STREAM LEAKAGE     =          12.0779
        UZF RECHARGE     =       73223.9531          UZF RECHARGE     =           0.0000
               GW ET     =           0.0000                 GW ET     =           0.0000
     SURFACE LEAKAGE     =           0.0000       SURFACE LEAKAGE     =           0.0000
           AG WELLS      =           0.0000             AG WELLS      =           0.0000

                TOTAL IN =   186116320.0000                  TOTAL IN =          13.2973

          OUT:                                     OUT:
          ----                                     ----
             STORAGE     =    32817124.0000               STORAGE     =           2.1616
       CONSTANT HEAD     =           0.0000         CONSTANT HEAD     =           0.0000
     HEAD DEP BOUNDS     =     4199244.0000       HEAD DEP BOUNDS     =           0.2889
      STREAM LEAKAGE     =   149094624.0000        STREAM LEAKAGE     =          10.8456
        UZF RECHARGE     =           0.0000          UZF RECHARGE     =           0.0000
               GW ET     =           0.0000                 GW ET     =           0.0000
     SURFACE LEAKAGE     =           0.0000       SURFACE LEAKAGE     =           0.0000
           AG WELLS      =           0.0000             AG WELLS      =           0.0000

               TOTAL OUT =   186110992.0000                 TOTAL OUT =          13.2961

                IN - OUT =        5328.0000                  IN - OUT =       1.2074E-03

     PERCENT DISCREPANCY =           0.00         PERCENT DISCREPANCY =           0.01






         TIME SUMMARY AT END OF TIME STEP   15 IN STRESS PERIOD    7
                    SECONDS     MINUTES      HOURS       DAYS        YEARS
                    -----------------------------------------------------------
   TIME STEP LENGTH  87667.      1461.1      24.352      1.0147     2.77799E-03
 STRESS PERIOD TIME 1.31500E+06  21917.      365.28      15.220     4.16698E-02
         TOTAL TIME 1.45514E+07 2.42524E+05  4042.1      168.42     0.46111    
1
 
 SOLVING FOR HEAD 
                                                   Max.-Head-Change                         Max.-Flux-Residual
  Residual-Control   Outer-Iter.   Inner-Iter.     Column Row Layer    Maximum-Head-Change  Column Row Layer    Maximum-Flux-Residual          L2-NORM 
          0                 1           2             4   13     1       0.6938325079E-02       4   13    1         0.3988994156E+00      0.7805036429E+00
          0                 2           2             4   13     1      -0.7683622377E-02       4   13    1        -0.4522009916E+00      0.7850304713E+00
          0                 3           2             2   13     1      -0.4821085928E-03       4   13    1        -0.2818663563E-01      0.5088824941E-01
          0                 4           2             7   13     1      -0.4033755303E-03       7   13    1        -0.2368979881E-01      0.3711837467E-01
          0                 5           2             4   13     1      -0.1380035792E-03       4   13    1        -0.8115555623E-02      0.1440471114E-01
          0                 6           1             4   13     1      -0.6916636898E-04       4   13    1        -0.4067313607E-02      0.7245741255E-02

    ------------------------------------------------
       NWT REQUIRED            6 OUTER ITERATIONS 
       AND A TOTAL OF         11 INNER ITERATIONS.
    ------------------------------------------------

 NO OUTPUT CONTROL FOR STRESS PERIOD    7   TIME STEP   16
 
 SOLVING FOR HEAD 
                                                   Max.-Head-Change                         Max.-Flux-Residual
  Residual-Control   Outer-Iter.   Inner-Iter.     Column Row Layer    Maximum-Head-Change  Column Row Layer    Maximum-Flux-Residual          L2-NORM 
          0                 1           2             4   13     1       0.7103261609E-02       4   13    1         0.4083763409E+00      0.7939778771E+00
          0                 2           2             4   13     1      -0.7707240544E-02       4   13    1        -0.4535911123E+00      0.7874278722E+00
          0                 3           2             2   13     1      -0.4823248094E-03       4   13    1        -0.2819371299E-01      0.5090770502E-01
          0                 4           2             7   13     1      -0.4042476274E-03       7   13    1        -0.2374099077E-01      0.3722469640E-01
          0                 5           2             4   13     1      -0.1354482671E-03       4   13    1        -0.7965274314E-02      0.1413973830E-01
          0                 6           1             4   13     1      -0.6809786429E-04       4   13    1        -0.4004471451E-02      0.7133728891E-02

    ------------------------------------------------
       NWT REQUIRED            6 OUTER ITERATIONS 
       AND A TOTAL OF         11 INNER ITERATIONS.
    ------------------------------------------------

 NO OUTPUT CONTROL FOR STRESS PERIOD    7   TIME STEP   17
 
 SOLVING FOR HEAD 
                                                   Max.-Head-Change                         Max.-Flux-Residual
  Residual-Control   Outer-Iter.   Inner-Iter.     Column Row Layer    Maximum-Head-Change  Column Row Layer    Maximum-Flux-Residual          L2-NORM 
          0                 1           2             4   13     1       0.7253136861E-02       4   13    1         0.4169844391E+00      0.8065036335E+00
          0                 2           2             4   13     1      -0.7729042984E-02       4   13    1        -0.4548739179E+00      0.7896676454E+00
          0                 3           2             2   13     1      -0.4825896804E-03       4   13    1        -0.2819934134E-01      0.5092525038E-01
          0                 4           2             7   13     1      -0.4050790769E-03       7   13    1        -0.2378978759E-01      0.3732566686E-01
          0                 5           2             4   13     1      -0.1329556163E-03       4   13    1        -0.7818662159E-02      0.1388288802E-01
          0                 6           1             4   13     1      -0.6705437353E-04       4   13    1        -0.3943105524E-02      0.7024410957E-02

    ------------------------------------------------
       NWT REQUIRED            6 OUTER ITERATIONS 
       AND A TOTAL OF         11 INNER ITERATIONS.
    ------------------------------------------------

 NO OUTPUT CONTROL FOR STRESS PERIOD    7   TIME STEP   18
 
 SOLVING FOR HEAD 
                                                   Max.-Head-Change                         Max.-Flux-Residual
  Residual-Control   Outer-Iter.   Inner-Iter.     Column Row Layer    Maximum-Head-Change  Column Row Layer    Maximum-Flux-Residual          L2-NORM 
          0                 1           2             4   13     1       0.7389489394E-02       4   13    1         0.4248126354E+00      0.8181409822E+00
          0                 2           2             4   13     1      -0.7749210876E-02       4   13    1        -0.4560601473E+00      0.7917712448E+00
          0                 3           2             2   13     1      -0.4826142810E-03       4   13    1        -0.2820282806E-01      0.5093322036E-01
          0                 4           2             7   13     1      -0.4058722349E-03       7   13    1        -0.2383634757E-01      0.3742027986E-01
          0                 5           2             4   13     1      -0.1305517022E-03       4   13    1        -0.7677293193E-02      0.1363297386E-01
          0                 6           1             4   13     1      -0.6605934755E-04       4   13    1        -0.3884592252E-02      0.6918857904E-02

    ------------------------------------------------
       NWT REQUIRED            6 OUTER ITERATIONS 
       AND A TOTAL OF         11 INNER ITERATIONS.
    ------------------------------------------------

 NO OUTPUT CONTROL FOR STRESS PERIOD    7   TIME STEP   19
 
 SOLVING FOR HEAD 
                                                   Max.-Head-Change                         Max.-Flux-Residual
  Residual-Control   Outer-Iter.   Inner-Iter.     Column Row Layer    Maximum-Head-Change  Column Row Layer    Maximum-Flux-Residual          L2-NORM 
          0                 1           2             4   13     1       0.7513433115E-02       4   13    1         0.4319252897E+00      0.8289399971E+00
          0                 2           2             4   13     1      -0.7767837473E-02       4   13    1        -0.4571553212E+00      0.7937375548E+00
          0                 3           2             2   13     1      -0.4827026036E-03       4   13    1        -0.2820577188E-01      0.5094078384E-01
          0                 4           2             7   13     1      -0.4066313382E-03       7   13    1        -0.2388090680E-01      0.3750967496E-01
          0                 5           2             4   13     1      -0.1281948865E-03       4   13    1        -0.7538662275E-02      0.1339048619E-01
          0                 6           1             4   13     1      -0.6507665403E-04       4   13    1        -0.3826803431E-02      0.6815546647E-02

    ------------------------------------------------
       NWT REQUIRED            6 OUTER ITERATIONS 
       AND A TOTAL OF         11 INNER ITERATIONS.
    ------------------------------------------------

 NO OUTPUT CONTROL FOR STRESS PERIOD    7   TIME STEP   20
 
 SOLVING FOR HEAD 
                                                   Max.-Head-Change                         Max.-Flux-Residual
  Residual-Control   Outer-Iter.   Inner-Iter.     Column Row Layer    Maximum-Head-Change  Column Row Layer    Maximum-Flux-Residual          L2-NORM 
          0                 1           2             4   13     1       0.7626268925E-02       4   13    1         0.4383978532E+00      0.8389646094E+00
          0                 2           2             4   13     1      -0.7785126953E-02       4   13    1        -0.4581715558E+00      0.7955829888E+00
          0                 3           2             2   13     1      -0.4827394002E-03       4   13    1        -0.2820573148E-01      0.5094258896E-01
          0                 4           2             7   13     1      -0.4073420259E-03       7   13    1        -0.2392262174E-01      0.3759355528E-01
          0                 5           2             4   13     1      -0.1259324115E-03       4   13    1        -0.7405606656E-02      0.1315520095E-01
          0                 6           1             4   13     1      -0.6410360561E-04       4   13    1        -0.3769569219E-02      0.6715133751E-02

    ------------------------------------------------
       NWT REQUIRED            6 OUTER ITERATIONS 
       AND A TOTAL OF         11 INNER ITERATIONS.
    ------------------------------------------------

 NO OUTPUT CONTROL FOR STRESS PERIOD    7   TIME STEP   21
 
 SOLVING FOR HEAD 
                                                   Max.-Head-Change                         Max.-Flux-Residual
  Residual-Control   Outer-Iter.   Inner-Iter.     Column Row Layer    Maximum-Head-Change  Column Row Layer    Maximum-Flux-Residual          L2-NORM 
          0                 1           2             4   13     1       0.7729085665E-02       4   13    1         0.4442929732E+00      0.8482736615E+00
          0                 2           2             4   13     1      -0.7801176819E-02       4   13    1        -0.4591145903E+00      0.7973166075E+00
          0                 3           2             2   13     1      -0.4827351262E-03       4   13    1        -0.2820572237E-01      0.5094199137E-01
          0                 4           2             7   13     1      -0.4080229585E-03       7   13    1        -0.2396259364E-01      0.3767261271E-01
          0                 5           2             4   13     1      -0.1237218351E-03       4   13    1        -0.7275595068E-02      0.1292684601E-01
          0                 6           1             4   13     1      -0.6318238290E-04       4   13    1        -0.3715401916E-02      0.6617814917E-02

    ------------------------------------------------
       NWT REQUIRED            6 OUTER ITERATIONS 
       AND A TOTAL OF         11 INNER ITERATIONS.
    ------------------------------------------------

 NO OUTPUT CONTROL FOR STRESS PERIOD    7   TIME STEP   22
 
 SOLVING FOR HEAD 
                                                   Max.-Head-Change                         Max.-Flux-Residual
  Residual-Control   Outer-Iter.   Inner-Iter.     Column Row Layer    Maximum-Head-Change  Column Row Layer    Maximum-Flux-Residual          L2-NORM 
          0                 1           2             4   13     1       0.7822722419E-02       4   13    1         0.4496594586E+00      0.8568976945E+00
          0                 2           2             4   13     1      -0.7816108411E-02       4   13    1        -0.4599916416E+00      0.7989465765E+00
          0                 3           2             2   13     1      -0.4826840177E-03       4   13    1        -0.2820107698E-01      0.5093495324E-01
          0                 4           2             7   13     1      -0.4086675832E-03       7   13    1        -0.2400043245E-01      0.3774767829E-01
          0                 5           1             4   13     1      -0.1215613430E-03       4   13    1        -0.7148517741E-02      0.1270452593E-01
          0                 6           1             4   13     1      -0.6229049244E-04       4   13    1        -0.3662953170E-02      0.6523532217E-02

    ------------------------------------------------
       NWT REQUIRED            6 OUTER ITERATIONS 
       AND A TOTAL OF         10 INNER ITERATIONS.
    ------------------------------------------------

 NO OUTPUT CONTROL FOR STRESS PERIOD    7   TIME STEP   23
 
 SOLVING FOR HEAD 
                                                   Max.-Head-Change                         Max.-Flux-Residual
  Residual-Control   Outer-Iter.   Inner-Iter.     Column Row Layer    Maximum-Head-Change  Column Row Layer    Maximum-Flux-Residual          L2-NORM 
          0                 1           2             4   13     1       0.7908151878E-02       4   13    1         0.4545533068E+00      0.8649078218E+00
          0                 2           2             4   13     1      -0.7830012568E-02       4   13    1        -0.4608080647E+00      0.8004811139E+00
          0                 3           2             2   13     1      -0.4825844888E-03       4   13    1        -0.2819630591E-01      0.5092446075E-01
          0                 4           2             7   13     1      -0.4092822751E-03       7   13    1        -0.2403651516E-01      0.3781746815E-01
          0                 5           1             4   13     1      -0.1194986531E-03       4   13    1        -0.7027221237E-02      0.1248968152E-01
          0                 6           1             4   13     1      -0.6138404747E-04       4   13    1        -0.3609636808E-02      0.6430317387E-02

    ------------------------------------------------
       NWT REQUIRED            6 OUTER ITERATIONS 
       AND A TOTAL OF         10 INNER ITERATIONS.
    ------------------------------------------------

 NO OUTPUT CONTROL FOR STRESS PERIOD    7   TIME STEP   24
 
 SOLVING FOR HEAD 
                                                   Max.-Head-Change                         Max.-Flux-Residual
  Residual-Control   Outer-Iter.   Inner-Iter.     Column Row Layer    Maximum-Head-Change  Column Row Layer    Maximum-Flux-Residual          L2-NORM 
          0                 1           2             4   13     1       0.7985985834E-02       4   13    1         0.4590098327E+00      0.8723287413E+00
          0                 2           2             4   13     1      -0.7843027755E-02       4   13    1        -0.4615720587E+00      0.8019290685E+00
          0                 3           2             2   13     1      -0.4824247307E-03       4   13    1        -0.2818685058E-01      0.5090731715E-01
          0                 4           2             7   13     1      -0.4098627362E-03       7   13    1        -0.2407058945E-01      0.3788313208E-01
          0                 5           1             4   13     1      -0.1174705675E-03       4   13    1        -0.6907930661E-02      0.1228110750E-01
          0                 6           1             4   13     1      -0.6055653293E-04       4   13    1        -0.3560976686E-02      0.6342530112E-02

    ------------------------------------------------
       NWT REQUIRED            6 OUTER ITERATIONS 
       AND A TOTAL OF         10 INNER ITERATIONS.
    ------------------------------------------------

 NO OUTPUT CONTROL FOR STRESS PERIOD    7   TIME STEP   25
 
 SOLVING FOR HEAD 
                                                   Max.-Head-Change                         Max.-Flux-Residual
  Residual-Control   Outer-Iter.   Inner-Iter.     Column Row Layer    Maximum-Head-Change  Column Row Layer    Maximum-Flux-Residual          L2-NORM 
          0                 1           2             4   13     1       0.8057104278E-02       4   13    1         0.4630800439E+00      0.8792169506E+00
          0                 2           2             4   13     1      -0.7855182393E-02       4   13    1        -0.4622853070E+00      0.8032945415E+00
          0                 3           2             2   13     1      -0.4822339955E-03       4   13    1        -0.2817472802E-01      0.5088587701E-01
          0                 4           2             7   13     1      -0.4104133796E-03       7   13    1        -0.2410291719E-01      0.3794459606E-01
          0                 5           1             4   13     1      -0.1155107483E-03       4   13    1        -0.6792679706E-02      0.1207789032E-01
          0                 6           1             4   13     1      -0.5972200602E-04       4   13    1        -0.3511886592E-02      0.6256592817E-02

    ------------------------------------------------
       NWT REQUIRED            6 OUTER ITERATIONS 
       AND A TOTAL OF         10 INNER ITERATIONS.
    ------------------------------------------------

 NO OUTPUT CONTROL FOR STRESS PERIOD    7   TIME STEP   26
 
 SOLVING FOR HEAD 
                                                   Max.-Head-Change                         Max.-Flux-Residual
  Residual-Control   Outer-Iter.   Inner-Iter.     Column Row Layer    Maximum-Head-Change  Column Row Layer    Maximum-Flux-Residual          L2-NORM 
          0                 1           2             4   13     1       0.8122066429E-02       4   13    1         0.4667960281E+00      0.8856088159E+00
          0                 2           2             4   13     1      -0.7866578231E-02       4   13    1        -0.4629538403E+00      0.8045850983E+00
          0                 3           2             2   13     1      -0.4819842907E-03       4   13    1        -0.2816074316E-01      0.5085965296E-01
          0                 4           2             7   13     1      -0.4109343108E-03       7   13    1        -0.2413349912E-01      0.3800200421E-01
          0                 5           1             4   13     1      -0.1135957218E-03       4   13    1        -0.6680043822E-02      0.1188053990E-01
          0                 6           1             4   13     1      -0.5895394949E-04       4   13    1        -0.3466737761E-02      0.6173863587E-02

    ------------------------------------------------
       NWT REQUIRED            6 OUTER ITERATIONS 
       AND A TOTAL OF         10 INNER ITERATIONS.
    ------------------------------------------------

 NO OUTPUT CONTROL FOR STRESS PERIOD    7   TIME STEP   27
 
 SOLVING FOR HEAD 
                                                   Max.-Head-Change                         Max.-Flux-Residual
  Residual-Control   Outer-Iter.   Inner-Iter.     Column Row Layer    Maximum-Head-Change  Column Row Layer    Maximum-Flux-Residual          L2-NORM 
          0                 1           2             4   13     1       0.8181449619E-02       4   13    1         0.4701911853E+00      0.8915334419E+00
          0                 2           2             4   13     1      -0.7877252160E-02       4   13    1        -0.4635798296E+00      0.8058034978E+00
          0                 3           2             2   13     1      -0.4816955665E-03       4   13    1        -0.2814587300E-01      0.5083087205E-01
          0                 4           2             7   13     1      -0.4114265386E-03       7   13    1        -0.2416239750E-01      0.3805547683E-01
          0                 5           1             4   13     1      -0.1117775389E-03       4   13    1        -0.6573121449E-02      0.1169136084E-01
          0                 6           1             4   13     1      -0.5814928011E-04       4   13    1        -0.3419407388E-02      0.6090640158E-02

    ------------------------------------------------
       NWT REQUIRED            6 OUTER ITERATIONS 
       AND A TOTAL OF         10 INNER ITERATIONS.
    ------------------------------------------------

 NO OUTPUT CONTROL FOR STRESS PERIOD    7   TIME STEP   28
 
 SOLVING FOR HEAD 
                                                   Max.-Head-Change                         Max.-Flux-Residual
  Residual-Control   Outer-Iter.   Inner-Iter.     Column Row Layer    Maximum-Head-Change  Column Row Layer    Maximum-Flux-Residual          L2-NORM 
          0                 1           2             4   13     1       0.8235688757E-02       4   13    1         0.4732906826E+00      0.8970333801E+00
          0                 2           2             4   13     1      -0.7887347338E-02       4   13    1        -0.4641717347E+00      0.8069624204E+00
          0                 3           2             2   13     1      -0.4813458165E-03       4   13    1        -0.2812421569E-01      0.5080456035E-01
          0                 4           2             7   13     1      -0.4118912613E-03       7   13    1        -0.2418968087E-01      0.3809600209E-01
          0                 5           1             4   13     1      -0.1100044526E-03       4   13    1        -0.6468822375E-02      0.1150882447E-01
          0                 6           1             4   13     1      -0.5739413143E-04       4   13    1        -0.3374984873E-02      0.6012440669E-02

    ------------------------------------------------
       NWT REQUIRED            6 OUTER ITERATIONS 
       AND A TOTAL OF         10 INNER ITERATIONS.
    ------------------------------------------------

 NO OUTPUT CONTROL FOR STRESS PERIOD    7   TIME STEP   29
 
 SOLVING FOR HEAD 
                                                   Max.-Head-Change                         Max.-Flux-Residual
  Residual-Control   Outer-Iter.   Inner-Iter.     Column Row Layer    Maximum-Head-Change  Column Row Layer    Maximum-Flux-Residual          L2-NORM 
          0                 1           2             4   13     1       0.7389300174E-02       4   13    1         0.4245707478E+00      0.8139535030E+00
          0                 2           2             4   13     1      -0.7794004836E-02       4   13    1        -0.4585233955E+00      0.7954986842E+00
          0                 3           2             7   13     1      -0.4910256978E-03       4   13    1        -0.2749339350E-01      0.5617833798E-01
          0                 4           2             4   13     1      -0.2974112233E-03       4   13    1        -0.1748528706E-01      0.3069874986E-01
          0                 5           1             4   13     1      -0.1071626362E-03       4   13    1        -0.6299602458E-02      0.1125100506E-01
          0                 6           1             4   13     1      -0.5642174953E-04       4   13    1        -0.3316698049E-02      0.5903348640E-02

    ------------------------------------------------
       NWT REQUIRED            6 OUTER ITERATIONS 
       AND A TOTAL OF         10 INNER ITERATIONS.
    ------------------------------------------------

 NO OUTPUT CONTROL FOR STRESS PERIOD    7   TIME STEP   30



 STREAM LISTING     PERIOD      7   STEP       30

 LAYER ROW COL. STREAM  RCH.  FLOW INTO     FLOW TO   FLOW OUT OF   OVRLND.     DIRECT     STREAM       STREAM     STREAM     STREAM   STREAMBED  STREAMBED
                SEG.NO.  NO.  STRM. RCH.    AQUIFER    STRM. RCH.    RUNOFF     PRECIP       ET          HEAD       DEPTH      WIDTH   CONDCTNC.   GRADIENT

   1    1    1     1     1    2.8852E+01  2.6229E-01   2.8590E+01  0.000E+00  0.000E+00  0.000E+00  1.09428E+03  1.233E+00  1.377E+01  6.197E-02  1.411E+00
   1    2    2     1     2    2.8590E+01  4.0577E-01   2.8184E+01  0.000E+00  0.000E+00  0.000E+00  1.08929E+03  1.228E+00  1.371E+01  9.596E-02  1.409E+00
   1    3    3     1     3    2.8184E+01  3.4562E-01   2.7838E+01  0.000E+00  0.000E+00  0.000E+00  1.08364E+03  1.223E+00  1.364E+01  8.184E-02  1.408E+00
   1    3    4     1     4    2.7838E+01  3.1791E-01   2.7521E+01  0.000E+00  0.000E+00  0.000E+00  1.07863E+03  1.219E+00  1.358E+01  7.536E-02  1.406E+00
   1    4    5     2     1    2.5521E+01  3.2899E-01   2.5192E+01  0.000E+00  0.000E+00  0.000E+00  1.07315E+03  1.218E+00  1.200E+01  7.800E-02  1.406E+00
   1    5    6     2     2    2.5192E+01  2.5257E-01   2.4939E+01  0.000E+00  0.000E+00  0.000E+00  1.06772E+03  1.209E+00  1.200E+01  6.000E-02  1.403E+00
   1    6    6     2     3    2.4939E+01  2.5213E-01   2.4687E+01  0.000E+00  0.000E+00  0.000E+00  1.06299E+03  1.202E+00  1.200E+01  6.000E-02  1.401E+00
   1    7    6     2     4    2.4687E+01  2.5169E-01   2.4435E+01  0.000E+00  0.000E+00  0.000E+00  1.05827E+03  1.195E+00  1.200E+01  6.000E-02  1.398E+00
   1    8    6     2     5    2.4435E+01  2.5125E-01   2.4184E+01  0.000E+00  0.000E+00  0.000E+00  1.05355E+03  1.187E+00  1.200E+01  6.000E-02  1.396E+00
   1    3    5     3     1    2.0000E+00  2.8252E-01   1.7175E+00  0.000E+00  0.000E+00  0.000E+00  1.07555E+03  1.909E+00  9.636E+00  7.227E-02  1.955E+00
   1    3    6     3     2    1.7175E+00  2.4905E-01   1.4684E+00  0.000E+00  0.000E+00  0.000E+00  1.07264E+03  1.727E+00  8.909E+00  6.682E-02  1.864E+00
   1    3    7     3     3    1.4684E+00  1.9718E-01   1.2712E+00  0.000E+00  0.000E+00  0.000E+00  1.06987E+03  1.555E+00  8.218E+00  5.547E-02  1.777E+00
   1    4    8     3     4    1.2712E+00  2.2567E-01   1.0456E+00  0.000E+00  0.000E+00  0.000E+00  1.06682E+03  1.364E+00  7.455E+00  6.709E-02  1.682E+00
   1    5    8     3     5    1.0456E+00  1.5790E-01   8.8768E-01  0.000E+00  0.000E+00  0.000E+00  1.06362E+03  1.164E+00  6.655E+00  4.991E-02  1.582E+00
   1    6    8     3     6    8.8768E-01  5.5980E-02   8.3170E-01  0.000E+00  0.000E+00  0.000E+00  1.06158E+03  1.036E+00  6.145E+00  1.844E-02  1.518E+00
   1    5   10     4     1    1.0000E+01  9.0919E-02   9.9091E+00  0.000E+00  0.000E+00  0.000E+00  1.07836E+03  6.368E-01  1.000E+01  2.500E-02  1.212E+00
   1    5    9     4     2    9.9091E+00  1.8158E-01   9.7275E+00  0.000E+00  0.000E+00  0.000E+00  1.07154E+03  6.315E-01  1.000E+01  5.000E-02  1.211E+00
   1    6    8     4     3    9.7275E+00  1.2689E-01   9.6006E+00  0.000E+00  0.000E+00  0.000E+00  1.06381E+03  6.256E-01  1.000E+01  3.500E-02  1.209E+00
   1    6    8     5     1    1.0432E+01  2.2686E-01   1.0205E+01  0.000E+00  0.000E+00  0.000E+00  1.05868E+03  6.790E-01  1.542E+01  6.166E-02  1.226E+00
   1    7    7     5     2    1.0205E+01  2.7894E-01   9.9265E+00  0.000E+00  0.000E+00  0.000E+00  1.05417E+03  6.732E-01  1.519E+01  7.594E-02  1.224E+00
   1    8    7     5     3    9.9265E+00  1.9221E-01   9.7343E+00  0.000E+00  0.000E+00  0.000E+00  1.04992E+03  6.676E-01  1.497E+01  5.241E-02  1.223E+00
   1    8    6     5     4    9.7343E+00  1.3577E-01   9.5985E+00  0.000E+00  0.000E+00  0.000E+00  1.04691E+03  6.637E-01  1.482E+01  3.706E-02  1.221E+00
   1    9    6     6     1    1.1545E+01  2.2602E-01   1.1319E+01  0.000E+00  0.000E+00  0.000E+00  1.04349E+03  7.669E-01  1.200E+01  6.000E-02  1.256E+00
   1   10    7     6     2    1.1319E+01  2.2547E-01   1.1094E+01  0.000E+00  0.000E+00  0.000E+00  1.03894E+03  7.579E-01  1.200E+01  6.000E-02  1.253E+00
   1   11    7     6     3    1.1094E+01  2.2493E-01   1.0869E+01  0.000E+00  0.000E+00  0.000E+00  1.03439E+03  7.488E-01  1.200E+01  6.000E-02  1.250E+00
   1   12    7     6     4    1.0869E+01  2.2438E-01   1.0644E+01  0.000E+00  0.000E+00  0.000E+00  1.02983E+03  7.396E-01  1.200E+01  6.000E-02  1.247E+00
   1   13    7     6     5    1.0644E+01 -5.0646E-02   1.0695E+01  0.000E+00  0.000E+00  0.000E+00  1.02665E+03  7.360E-01  1.200E+01  2.400E-01 -7.034E-02
   1   14    9     7     1    1.5000E+02  1.3680E+00   1.4863E+02  0.000E+00  0.000E+00  0.000E+00  1.03987E+03  2.288E+00  5.529E+01  5.593E-01  8.153E-01
   1   13    8     7     2    1.4863E+02  1.9149E+00   1.4672E+02  0.000E+00  0.000E+00  0.000E+00  1.03478E+03  2.279E+00  5.526E+01  6.148E-01  1.038E+00
   1   13    7     7     3    1.4672E+02  1.5818E+00   1.4514E+02  0.000E+00  0.000E+00  0.000E+00  1.02969E+03  2.270E+00  5.521E+01  5.584E-01  9.443E-01
   1   13    6     8     1    1.5583E+02  9.4327E-01   1.5489E+02  0.000E+00  0.000E+00  0.000E+00  1.02473E+03  2.855E+00  4.139E+01  4.218E-01  7.454E-01
   1   13    5     8     2    1.5489E+02  2.0129E-01   1.5469E+02  0.000E+00  0.000E+00  0.000E+00  1.01848E+03  2.851E+00  4.134E+01  4.212E-01  1.593E-01
   1   13    4     8     3    1.5469E+02 -2.3799E+00   1.5707E+02  0.000E+00  0.000E+00  0.000E+00  1.01223E+03  2.858E+00  4.145E+01  4.223E+00 -1.878E-01
   1   13    3     8     4    1.5707E+02 -3.6439E+00   1.6071E+02  0.000E+00  0.000E+00  0.000E+00  1.00600E+03  2.879E+00  4.174E+01  4.254E+00 -2.855E-01
   1   13    2     8     5    1.6071E+02 -2.6409E+00   1.6335E+02  0.000E+00  0.000E+00  0.000E+00  9.99775E+02  2.900E+00  4.205E+01  4.285E+00 -2.054E-01
   1   13    1     8     6    1.6335E+02 -2.0431E+00   1.6539E+02  0.000E+00  0.000E+00  0.000E+00  9.94791E+02  2.916E+00  4.228E+01  2.585E+00 -2.635E-01
   1    8    6     9     1    2.2237E+01  0.0000E+00   2.2237E+01  0.000E+00  0.000E+00  0.000E+00  1.08240E+03  3.652E+00  4.000E+00  0.000E+00  2.217E+00
   1    8    5     9     2    2.2237E+01  0.0000E+00   2.2237E+01  0.000E+00  0.000E+00  0.000E+00  1.08190E+03  3.652E+00  4.000E+00  0.000E+00  2.217E+00





UNSATURATED ZONE PACKAGE VOLUMETRIC BUDGET FOR  TIME STEP    30 STRESS PERIOD    7
  ------------------------------------------------------------------------------



     CUMULATIVE VOLUMES      L**3       RATES FOR THIS TIME STEP      L**3/T
     ------------------                 ------------------------

           IN:                                      IN:
           ---                                      ---
        INFILTRATION =   155435968.3792          INFILTRATION =          26.6451

          OUT:                                     OUT:
          ----                                     ----
              UZF ET =   135939363.4678                UZF ET =          26.5656
        UZF RECHARGE =       73224.0000          UZF RECHARGE =       0.0000E+00

            IN - OUT =    19423380.9114              IN - OUT =       7.9513E-02

          STORAGE:                                 STORAGE:
          --------                                 --------
      STORAGE CHANGE =    19423380.2424        STORAGE CHANGE =       7.9513E-02

 PERCENT DISCREPANCY IS DIFFERENCE BETWEEN IN-OUT MINUS CHANGE IN STORAGE
 DIVIDED BY THE AVERAGE OF IN AND OUT TIMES 100

 PERCENT DISCREPANCY =           0.00     PERCENT DISCREPANCY =           0.00






1
  VOLUMETRIC BUDGET FOR AGRICULTURAL FIELDS AT  END OF TIME STEP   30, STRESS PERIOD   7
  ------------------------------------------------------------------------------

     CUMULATIVE VOLUMES      L**3       RATES FOR THIS TIME STEP      L**3/T
     ------------------                 ------------------------

           IN:                                      IN:
           ---                                      ---
               AG WELLS  =           0.0000                 AG WELLS  =           0.0000
      DIVERSION SEGMENTS =    85810680.0000        DIVERSION SEGMENTS =          22.2372
           GW IRRIGATION =           0.0000             GW IRRIGATION =           0.0000
           SW IRRIGATION =           0.0000             SW IRRIGATION =           0.0000
        SYSTEM LOSSES GW =           0.0000          SYSTEM LOSSES GW =           0.0000
        SYSTEM LOSSES SW =           0.0000          SYSTEM LOSSES SW =           0.0000

                TOTAL IN =    85810680.0000                  TOTAL IN =          22.2372

          OUT:                                     OUT:
          ----                                     ----
               AG WELLS  =           0.0000                 AG WELLS  =           0.0000
      DIVERSION SEGMENTS =           0.0000        DIVERSION SEGMENTS =           0.0000
           GW IRRIGATION =           0.0000             GW IRRIGATION =           0.0000
           SW IRRIGATION =    85812392.0000             SW IRRIGATION =          22.2376
        SYSTEM LOSSES GW =           0.0000          SYSTEM LOSSES GW =           0.0000
        SYSTEM LOSSES SW =           0.0000          SYSTEM LOSSES SW =           0.0000

               TOTAL OUT =    85812392.0000                 TOTAL OUT =          22.2376

                IN - OUT =       -1712.0000                  IN - OUT =      -4.4250E-04

     PERCENT DISCREPANCY =          -0.00         PERCENT DISCREPANCY =          -0.00



1
  VOLUMETRIC BUDGET FOR ENTIRE MODEL AT END OF TIME STEP   30, STRESS PERIOD   7
  ------------------------------------------------------------------------------

     CUMULATIVE VOLUMES      L**3       RATES FOR THIS TIME STEP      L**3/T
     ------------------                 ------------------------

           IN:                                      IN:
           ---                                      ---
             STORAGE     =    10693909.0000               STORAGE     =           0.8195
       CONSTANT HEAD     =           0.0000         CONSTANT HEAD     =           0.0000
     HEAD DEP BOUNDS     =     4567467.0000       HEAD DEP BOUNDS     =           0.2880
      STREAM LEAKAGE     =   188029936.0000        STREAM LEAKAGE     =          11.9798
        UZF RECHARGE     =       73223.9531          UZF RECHARGE     =           0.0000
               GW ET     =           0.0000                 GW ET     =           0.0000
     SURFACE LEAKAGE     =           0.0000       SURFACE LEAKAGE     =           0.0000
           AG WELLS      =           0.0000             AG WELLS      =           0.0000

                TOTAL IN =   203364528.0000                  TOTAL IN =          13.0872

          OUT:                                     OUT:
          ----                                     ----
             STORAGE     =    35619564.0000               STORAGE     =           2.0396
       CONSTANT HEAD     =           0.0000         CONSTANT HEAD     =           0.0000
     HEAD DEP BOUNDS     =     4578508.0000       HEAD DEP BOUNDS     =           0.2881
      STREAM LEAKAGE     =   163159680.0000        STREAM LEAKAGE     =          10.7585
        UZF RECHARGE     =           0.0000          UZF RECHARGE     =           0.0000
               GW ET     =           0.0000                 GW ET     =           0.0000
     SURFACE LEAKAGE     =           0.0000       SURFACE LEAKAGE     =           0.0000
           AG WELLS      =           0.0000             AG WELLS      =           0.0000

               TOTAL OUT =   203357760.0000                 TOTAL OUT =          13.0862

                IN - OUT =        6768.0000                  IN - OUT =       1.0576E-03

     PERCENT DISCREPANCY =           0.00         PERCENT DISCREPANCY =           0.01






         TIME SUMMARY AT END OF TIME STEP   30 IN STRESS PERIOD    7
                    SECONDS     MINUTES      HOURS       DAYS        YEARS
                    -----------------------------------------------------------
   TIME STEP LENGTH  87667.      1461.1      24.352      1.0147     2.77799E-03
 STRESS PERIOD TIME 2.63000E+06  43833.      730.56      30.440     8.33397E-02
         TOTAL TIME 1.58664E+07 2.64440E+05  4407.3      183.64     0.50278    
1
1
                            STRESS PERIOD NO.    8, LENGTH =   2630000.    
                            -----------------------------------------------

                              NUMBER OF TIME STEPS =    30

                               MULTIPLIER FOR DELT =     1.000

                            INITIAL TIME STEP SIZE =   87666.66    

 REUSING NON-PARAMETER GHB CELLS FROM LAST STRESS PERIOD

      2 GHB CELLS

 REUSING STREAM SEGMENT DATA FROM LAST STRESS PERIOD



            AREAL INFILTRATION RATE
 READING ON UNIT   19 WITH FORMAT: (10F4.0)            

            1           2           3           4           5           6           7           8           9          10
 ........................................................................................................................
   1   1.2000E-09   0.000       0.000       0.000       0.000       0.000       0.000       0.000       0.000       0.000    
   2   2.1000E-09  2.0000E-09  8.0000E-10  8.5000E-09   0.000       0.000       0.000       0.000       0.000       0.000    
   3   5.0000E-10  1.1000E-09  8.8000E-09  5.5000E-09   0.000       0.000       0.000       0.000       0.000       0.000    
   4   8.5000E-09  1.1000E-09  1.1000E-09  1.1000E-09  2.0000E-09   0.000       0.000       0.000       0.000       0.000    
   5   8.5000E-09  1.1000E-09  1.1000E-09  1.1000E-09  1.1000E-09   0.000       0.000       0.000       0.000       0.000    
   6   8.5000E-09  5.2000E-09  2.1000E-09  1.1000E-09  1.5000E-09   0.000       0.000       0.000       0.000       0.000    
   7   8.5000E-09  5.2000E-09  2.1000E-09  1.2000E-09  2.0000E-09   0.000       0.000       0.000       0.000       0.000    
   8   5.0000E-10  5.2000E-09  2.1000E-09  1.2000E-09  5.0000E-09   0.000       0.000       0.000       0.000       0.000    
   9   5.0000E-10  5.2000E-09  2.1000E-09  1.2000E-09  5.0000E-09   0.000       0.000       0.000       0.000       0.000    
  10   5.0000E-10  5.2000E-09  2.1000E-09  1.2000E-09  5.8000E-09   0.000       0.000       0.000       0.000       0.000    
  11   1.0000E-10  1.1000E-09  1.1000E-09  1.2000E-09  5.0000E-09   0.000       0.000       0.000       0.000       0.000    
  12   1.1000E-09  1.1000E-09  1.1000E-09  1.1000E-09  2.0000E-09   0.000       0.000       0.000       0.000       0.000    
  13   1.1000E-09  2.2000E-09  2.2000E-09  2.1000E-09  1.0000E-09   0.000       0.000       0.000       0.000       0.000    
  14   2.0000E-10  5.5000E-09  5.5000E-09  5.2000E-09  1.0000E-09   0.000       0.000       0.000       0.000       0.000    
  15    0.000      8.8000E-09  8.8000E-09   0.000       0.000       0.000       0.000       0.000       0.000       0.000    

                  ET RATE =  4.000000E-07

 USING ET EXTINCTION DEPTH FROM PREVIOUS STRESS PERIOD. CURRENT PERIOD IS:       8

 USING EXTINCTION WATER CONTENT FROM PREVIOUS STRESS PERIOD. CURRENT PERIOD IS:       8

 USING AIR ENTRY PRESSURE FROM PREVIOUS STRESS PERIOD. CURRENT PERIOD IS:       8

 USING ROOT PRESSURE HEAD FROM PREVIOUS STRESS PERIOD. CURRENT PERIOD IS:       8

 USING ROOT ACTIVITY FROM PREVIOUS STRESS PERIOD. CURRENT PERIOD IS:       8

 PROCESSING AG STRESS PERIOD DATA

 READING AG STRESS PERIOD DATA

 READING IRRIGATION SEGMENT

 READING IRRIGATION WELL

 READING SUPPLEMENTAL WELL

 END PROCESSING AG STRESS PERIOD DATA OPTIONS
 
 SOLVING FOR HEAD 
                                                   Max.-Head-Change                         Max.-Flux-Residual
  Residual-Control   Outer-Iter.   Inner-Iter.     Column Row Layer    Maximum-Head-Change  Column Row Layer    Maximum-Flux-Residual          L2-NORM 
          0                 1           2             4    7     1      -0.9057711246E-01       4    8    1        -0.4740468597E+01      0.1160860382E+02
          0                 2           2             4   13     1      -0.9828440618E-02       4   13    1        -0.5776534207E+00      0.1295864042E+01
          0                 3           2             4    7     1      -0.4523758778E-02       4    8    1        -0.2364118215E+00      0.5854177926E+00
          0                 4           2             4    7     1      -0.1597282853E-02       4    7    1        -0.8340486636E-01      0.2040796595E+00
          0                 5           2             4    7     1      -0.8640400899E-03       4    8    1        -0.4512797257E-01      0.1105312075E+00
          0                 6           2             4    7     1      -0.4255258442E-03       4    7    1        -0.2221781113E-01      0.5441956608E-01
          0                 7           2             4    7     1      -0.2134260417E-03       4    8    1        -0.1114363802E-01      0.2729613244E-01
          0                 8           1             4    7     1      -0.1066604089E-03       4    7    1        -0.5569000835E-02      0.1364118319E-01
          0                 9           1             4    7     1      -0.5334459710E-04       4    8    1        -0.2785263314E-02      0.6822447951E-02

    ------------------------------------------------
       NWT REQUIRED            9 OUTER ITERATIONS 
       AND A TOTAL OF         16 INNER ITERATIONS.
    ------------------------------------------------

 OUTPUT CONTROL FOR STRESS PERIOD    8   TIME STEP    1
    PRINT BUDGET
    SAVE BUDGET
 UBDSV1 SAVING "         STORAGE" ON UNIT 102 AT TIME STEP  1, STRESS PERIOD   8
 UBDSV2 SAVING "   CONSTANT HEAD" ON UNIT 102 AT TIME STEP  1, STRESS PERIOD   8
 UBDSV1 SAVING "FLOW RIGHT FACE " ON UNIT 102 AT TIME STEP  1, STRESS PERIOD   8
 UBDSV1 SAVING "FLOW FRONT FACE " ON UNIT 102 AT TIME STEP  1, STRESS PERIOD   8

  HEAD DEP BOUNDS   PERIOD    8   STEP     1
 BOUNDARY      1   LAYER   1   ROW    13   COL     1   RATE   -0.288017    
 BOUNDARY      2   LAYER   1   ROW    14   COL     9   RATE    0.287951    



 STREAM LISTING     PERIOD      8   STEP        1

 LAYER ROW COL. STREAM  RCH.  FLOW INTO     FLOW TO   FLOW OUT OF   OVRLND.     DIRECT     STREAM       STREAM     STREAM     STREAM   STREAMBED  STREAMBED
                SEG.NO.  NO.  STRM. RCH.    AQUIFER    STRM. RCH.    RUNOFF     PRECIP       ET          HEAD       DEPTH      WIDTH   CONDCTNC.   GRADIENT

   1    1    1     1     1    2.8125E+01  2.5915E-01   2.7866E+01  0.000E+00  0.000E+00  0.000E+00  1.09427E+03  1.223E+00  1.364E+01  6.137E-02  1.408E+00
   1    2    2     1     2    2.7866E+01  4.0087E-01   2.7465E+01  0.000E+00  0.000E+00  0.000E+00  1.08928E+03  1.218E+00  1.358E+01  9.503E-02  1.406E+00
   1    3    3     1     3    2.7465E+01  3.4143E-01   2.7124E+01  0.000E+00  0.000E+00  0.000E+00  1.08363E+03  1.213E+00  1.351E+01  8.104E-02  1.404E+00
   1    3    4     1     4    2.7124E+01  3.1403E-01   2.6810E+01  0.000E+00  0.000E+00  0.000E+00  1.07862E+03  1.209E+00  1.344E+01  7.461E-02  1.403E+00
   1    4    5     2     1    2.4810E+01  3.2739E-01   2.4482E+01  0.000E+00  0.000E+00  0.000E+00  1.07313E+03  1.197E+00  1.200E+01  7.800E-02  1.399E+00
   1    5    6     2     2    2.4482E+01  2.5133E-01   2.4231E+01  0.000E+00  0.000E+00  0.000E+00  1.06770E+03  1.189E+00  1.200E+01  6.000E-02  1.396E+00
   1    6    6     2     3    2.4231E+01  2.5089E-01   2.3980E+01  0.000E+00  0.000E+00  0.000E+00  1.06297E+03  1.181E+00  1.200E+01  6.000E-02  1.394E+00
   1    7    6     2     4    2.3980E+01  2.5044E-01   2.3730E+01  0.000E+00  0.000E+00  0.000E+00  1.05825E+03  1.174E+00  1.200E+01  6.000E-02  1.391E+00
   1    8    6     2     5    2.3730E+01  2.5000E-01   2.3480E+01  0.000E+00  0.000E+00  0.000E+00  1.05353E+03  1.167E+00  1.200E+01  6.000E-02  1.389E+00
   1    3    5     3     1    2.0000E+00  2.8252E-01   1.7175E+00  0.000E+00  0.000E+00  0.000E+00  1.07555E+03  1.909E+00  9.636E+00  7.227E-02  1.955E+00
   1    3    6     3     2    1.7175E+00  2.4905E-01   1.4684E+00  0.000E+00  0.000E+00  0.000E+00  1.07264E+03  1.727E+00  8.909E+00  6.682E-02  1.864E+00
   1    3    7     3     3    1.4684E+00  1.9718E-01   1.2712E+00  0.000E+00  0.000E+00  0.000E+00  1.06987E+03  1.555E+00  8.218E+00  5.547E-02  1.777E+00
   1    4    8     3     4    1.2712E+00  2.2567E-01   1.0456E+00  0.000E+00  0.000E+00  0.000E+00  1.06682E+03  1.364E+00  7.455E+00  6.709E-02  1.682E+00
   1    5    8     3     5    1.0456E+00  1.5790E-01   8.8768E-01  0.000E+00  0.000E+00  0.000E+00  1.06362E+03  1.164E+00  6.655E+00  4.991E-02  1.582E+00
   1    6    8     3     6    8.8768E-01  5.5980E-02   8.3170E-01  0.000E+00  0.000E+00  0.000E+00  1.06158E+03  1.036E+00  6.145E+00  1.844E-02  1.518E+00
   1    5   10     4     1    1.0000E+01  9.0919E-02   9.9091E+00  0.000E+00  0.000E+00  0.000E+00  1.07836E+03  6.368E-01  1.000E+01  2.500E-02  1.212E+00
   1    5    9     4     2    9.9091E+00  1.8158E-01   9.7275E+00  0.000E+00  0.000E+00  0.000E+00  1.07154E+03  6.315E-01  1.000E+01  5.000E-02  1.211E+00
   1    6    8     4     3    9.7275E+00  1.2689E-01   9.6006E+00  0.000E+00  0.000E+00  0.000E+00  1.06381E+03  6.256E-01  1.000E+01  3.500E-02  1.209E+00
   1    6    8     5     1    1.0432E+01  2.2686E-01   1.0205E+01  0.000E+00  0.000E+00  0.000E+00  1.05868E+03  6.790E-01  1.542E+01  6.166E-02  1.226E+00
   1    7    7     5     2    1.0205E+01  2.7894E-01   9.9265E+00  0.000E+00  0.000E+00  0.000E+00  1.05417E+03  6.732E-01  1.519E+01  7.594E-02  1.224E+00
   1    8    7     5     3    9.9265E+00  1.9221E-01   9.7343E+00  0.000E+00  0.000E+00  0.000E+00  1.04992E+03  6.676E-01  1.497E+01  5.241E-02  1.223E+00
   1    8    6     5     4    9.7343E+00  1.3577E-01   9.5985E+00  0.000E+00  0.000E+00  0.000E+00  1.04691E+03  6.637E-01  1.482E+01  3.706E-02  1.221E+00
   1    9    6     6     1    9.5985E+00  2.2097E-01   9.3776E+00  0.000E+00  0.000E+00  0.000E+00  1.04341E+03  6.828E-01  1.200E+01  6.000E-02  1.228E+00
   1   10    7     6     2    9.3776E+00  2.2039E-01   9.1572E+00  0.000E+00  0.000E+00  0.000E+00  1.03885E+03  6.732E-01  1.200E+01  6.000E-02  1.224E+00
   1   11    7     6     3    9.1572E+00  2.1981E-01   8.9374E+00  0.000E+00  0.000E+00  0.000E+00  1.03430E+03  6.636E-01  1.200E+01  6.000E-02  1.221E+00
   1   12    7     6     4    8.9374E+00  2.1923E-01   8.7181E+00  0.000E+00  0.000E+00  0.000E+00  1.02974E+03  6.539E-01  1.200E+01  6.000E-02  1.218E+00
   1   13    7     6     5    8.7181E+00 -7.0945E-02   8.7891E+00  0.000E+00  0.000E+00  0.000E+00  1.02656E+03  6.506E-01  1.200E+01  2.400E-01 -9.854E-02
   1   14    9     7     1    1.5000E+02  1.3680E+00   1.4863E+02  0.000E+00  0.000E+00  0.000E+00  1.03987E+03  2.288E+00  5.529E+01  5.593E-01  8.153E-01
   1   13    8     7     2    1.4863E+02  1.9150E+00   1.4672E+02  0.000E+00  0.000E+00  0.000E+00  1.03478E+03  2.279E+00  5.526E+01  6.148E-01  1.038E+00
   1   13    7     7     3    1.4672E+02  1.5823E+00   1.4513E+02  0.000E+00  0.000E+00  0.000E+00  1.02969E+03  2.270E+00  5.521E+01  5.584E-01  9.446E-01
   1   13    6     8     1    1.5392E+02  9.3332E-01   1.5299E+02  0.000E+00  0.000E+00  0.000E+00  1.02472E+03  2.841E+00  4.119E+01  4.198E-01  7.411E-01
   1   13    5     8     2    1.5299E+02  1.9492E-01   1.5280E+02  0.000E+00  0.000E+00  0.000E+00  1.01846E+03  2.837E+00  4.114E+01  4.192E-01  1.550E-01
   1   13    4     8     3    1.5280E+02 -2.4172E+00   1.5521E+02  0.000E+00  0.000E+00  0.000E+00  1.01222E+03  2.845E+00  4.125E+01  4.203E+00 -1.917E-01
   1   13    3     8     4    1.5521E+02 -3.6751E+00   1.5889E+02  0.000E+00  0.000E+00  0.000E+00  1.00599E+03  2.866E+00  4.155E+01  4.234E+00 -2.893E-01
   1   13    2     8     5    1.5889E+02 -2.6747E+00   1.6156E+02  0.000E+00  0.000E+00  0.000E+00  9.99762E+02  2.887E+00  4.187E+01  4.266E+00 -2.090E-01
   1   13    1     8     6    1.6156E+02 -2.0620E+00   1.6362E+02  0.000E+00  0.000E+00  0.000E+00  9.94778E+02  2.903E+00  4.210E+01  2.574E+00 -2.670E-01
   1    8    6     9     1    2.3480E+01  0.0000E+00   2.3480E+01  0.000E+00  0.000E+00  0.000E+00  1.08253E+03  3.782E+00  4.000E+00  0.000E+00  2.261E+00
   1    8    5     9     2    2.3480E+01  0.0000E+00   2.3480E+01  0.000E+00  0.000E+00  0.000E+00  1.08203E+03  3.782E+00  4.000E+00  0.000E+00  2.261E+00



 UBDSV3 SAVING "           GW ET" ON UNIT  61 AT TIME STEP  1, STRESS PERIOD   8
 UBDSV3 SAVING "    UZF RECHARGE" ON UNIT  61 AT TIME STEP  1, STRESS PERIOD   8
 UBDSV3 SAVING " SURFACE LEAKAGE" ON UNIT  61 AT TIME STEP  1, STRESS PERIOD   8
 UBDSV3 SAVING "       HORT+DUNN" ON UNIT  61 AT TIME STEP  1, STRESS PERIOD   8
 UBDSV3 SAVING "  STORAGE CHANGE" ON UNIT  61 AT TIME STEP  1, STRESS PERIOD   8


UNSATURATED ZONE PACKAGE VOLUMETRIC BUDGET FOR  TIME STEP     1 STRESS PERIOD    8
  ------------------------------------------------------------------------------



     CUMULATIVE VOLUMES      L**3       RATES FOR THIS TIME STEP      L**3/T
     ------------------                 ------------------------

           IN:                                      IN:
           ---                                      ---
        INFILTRATION =   161065529.0110          INFILTRATION =          64.2155

          OUT:                                     OUT:
          ----                                     ----
              UZF ET =   141558575.0371                UZF ET =          64.0975
        UZF RECHARGE =       73224.0000          UZF RECHARGE =       0.0000E+00

            IN - OUT =    19433729.9739              IN - OUT =           0.1181

          STORAGE:                                 STORAGE:
          --------                                 --------
      STORAGE CHANGE =    19433729.0985        STORAGE CHANGE =           0.1180

 PERCENT DISCREPANCY IS DIFFERENCE BETWEEN IN-OUT MINUS CHANGE IN STORAGE
 DIVIDED BY THE AVERAGE OF IN AND OUT TIMES 100

 PERCENT DISCREPANCY =           0.00     PERCENT DISCREPANCY =           0.00






 

            AG WELLS      PERIOD    8   STEP   1
 AG WELL      1   LAYER   1   ROW     6   COL     4   RATE    -6.05466    
 AG WELL      2   LAYER   1   ROW     6   COL     5   RATE    -6.05466    
 AG WELL      3   LAYER   1   ROW     7   COL     4   RATE    -6.05466    
 AG WELL      4   LAYER   1   ROW     7   COL     5   RATE    -6.05466    
 AG WELL      5   LAYER   1   ROW     8   COL     4   RATE    -6.05466    
 AG WELL      6   LAYER   1   ROW     8   COL     5   RATE    -6.05466    
 
 

   DIVERSION SEGMENTS     PERIOD    8   STEP   1
 SEGMENT      9   RATE     23.4796    
 
 

        SW IRRIGATION     PERIOD    8   STEP   1
 SEGMENT      9   ROW     6   COL     4   RATE     3.91334    
 SEGMENT      9   ROW     6   COL     5   RATE     3.91334    
 SEGMENT      9   ROW     7   COL     4   RATE     3.91334    
 SEGMENT      9   ROW     7   COL     5   RATE     3.91334    
 SEGMENT      9   ROW     8   COL     4   RATE     3.91334    
 SEGMENT      9   ROW     8   COL     5   RATE     3.91334    
 
 

        GW IRRIGATION     PERIOD    8   STEP   1
 AG WELL      1   ROW     6   COL     4   RATE     6.05466    
 AG WELL      2   ROW     6   COL     5   RATE     6.05466    
 AG WELL      3   ROW     7   COL     4   RATE     6.05466    
 AG WELL      4   ROW     7   COL     5   RATE     6.05466    
 AG WELL      5   ROW     8   COL     4   RATE     6.05466    
 AG WELL      6   ROW     8   COL     5   RATE     6.05466    
 
1
  VOLUMETRIC BUDGET FOR AGRICULTURAL FIELDS AT  END OF TIME STEP    1, STRESS PERIOD   8
  ------------------------------------------------------------------------------

     CUMULATIVE VOLUMES      L**3       RATES FOR THIS TIME STEP      L**3/T
     ------------------                 ------------------------

           IN:                                      IN:
           ---                                      ---
               AG WELLS  =     3184751.7500                 AG WELLS  =          36.3280
      DIVERSION SEGMENTS =    87869056.0000        DIVERSION SEGMENTS =          23.4796
           GW IRRIGATION =           0.0000             GW IRRIGATION =           0.0000
           SW IRRIGATION =           0.0000             SW IRRIGATION =           0.0000
        SYSTEM LOSSES GW =           0.0000          SYSTEM LOSSES GW =           0.0000
        SYSTEM LOSSES SW =           0.0000          SYSTEM LOSSES SW =           0.0000

                TOTAL IN =    91053808.0000                  TOTAL IN =          59.8076

          OUT:                                     OUT:
          ----                                     ----
               AG WELLS  =           0.0000                 AG WELLS  =           0.0000
      DIVERSION SEGMENTS =           0.0000        DIVERSION SEGMENTS =           0.0000
           GW IRRIGATION =     3184751.7500             GW IRRIGATION =          36.3280
           SW IRRIGATION =    87870808.0000             SW IRRIGATION =          23.4801
        SYSTEM LOSSES GW =           0.0000          SYSTEM LOSSES GW =           0.0000
        SYSTEM LOSSES SW =           0.0000          SYSTEM LOSSES SW =           0.0000

               TOTAL OUT =    91055560.0000                 TOTAL OUT =          59.8080

                IN - OUT =       -1752.0000                  IN - OUT =      -4.6921E-04

     PERCENT DISCREPANCY =          -0.00         PERCENT DISCREPANCY =          -0.00



1
  VOLUMETRIC BUDGET FOR ENTIRE MODEL AT END OF TIME STEP    1, STRESS PERIOD   8
  ------------------------------------------------------------------------------

     CUMULATIVE VOLUMES      L**3       RATES FOR THIS TIME STEP      L**3/T
     ------------------                 ------------------------

           IN:                                      IN:
           ---                                      ---
             STORAGE     =    13920576.0000               STORAGE     =          36.8061
       CONSTANT HEAD     =           0.0000         CONSTANT HEAD     =           0.0000
     HEAD DEP BOUNDS     =     4592710.5000       HEAD DEP BOUNDS     =           0.2880
      STREAM LEAKAGE     =   189075008.0000        STREAM LEAKAGE     =          11.9209
        UZF RECHARGE     =       73223.9531          UZF RECHARGE     =           0.0000
               GW ET     =           0.0000                 GW ET     =           0.0000
     SURFACE LEAKAGE     =           0.0000       SURFACE LEAKAGE     =           0.0000
           AG WELLS      =           0.0000             AG WELLS      =           0.0000

                TOTAL IN =   207661504.0000                  TOTAL IN =          49.0150

          OUT:                                     OUT:
          ----                                     ----
             STORAGE     =    35750832.0000               STORAGE     =           1.4974
       CONSTANT HEAD     =           0.0000         CONSTANT HEAD     =           0.0000
     HEAD DEP BOUNDS     =     4603757.5000       HEAD DEP BOUNDS     =           0.2880
      STREAM LEAKAGE     =   164115248.0000        STREAM LEAKAGE     =          10.9000
        UZF RECHARGE     =           0.0000          UZF RECHARGE     =           0.0000
               GW ET     =           0.0000                 GW ET     =           0.0000
     SURFACE LEAKAGE     =           0.0000       SURFACE LEAKAGE     =           0.0000
           AG WELLS      =     3184751.7500             AG WELLS      =          36.3280

               TOTAL OUT =   207654592.0000                 TOTAL OUT =          49.0133

                IN - OUT =        6912.0000                  IN - OUT =       1.6785E-03

     PERCENT DISCREPANCY =           0.00         PERCENT DISCREPANCY =           0.00






         TIME SUMMARY AT END OF TIME STEP    1 IN STRESS PERIOD    8
                    SECONDS     MINUTES      HOURS       DAYS        YEARS
                    -----------------------------------------------------------
   TIME STEP LENGTH  87667.      1461.1      24.352      1.0147     2.77799E-03
 STRESS PERIOD TIME  87667.      1461.1      24.352      1.0147     2.77799E-03
         TOTAL TIME 1.59541E+07 2.65901E+05  4431.7      184.65     0.50555    
1
 
 SOLVING FOR HEAD 
                                                   Max.-Head-Change                         Max.-Flux-Residual
  Residual-Control   Outer-Iter.   Inner-Iter.     Column Row Layer    Maximum-Head-Change  Column Row Layer    Maximum-Flux-Residual          L2-NORM 
          0                 1           2             4    7     1      -0.1138520903E+00       4    7    1        -0.5947443587E+01      0.1438228294E+02
          0                 2           2             4    7     1       0.1065276658E-01       4   13    1        -0.5790992673E+00      0.1705004688E+01
          0                 3           2             7   13     1      -0.9775687504E-03       7   13    1        -0.5456833044E-01      0.1524894190E+00
          0                 4           1             7   13     1       0.6653680934E-04       7   13    1         0.3814825560E-02      0.9947126099E-02

    ------------------------------------------------
       NWT REQUIRED            4 OUTER ITERATIONS 
       AND A TOTAL OF          7 INNER ITERATIONS.
    ------------------------------------------------

 NO OUTPUT CONTROL FOR STRESS PERIOD    8   TIME STEP    2
 
 SOLVING FOR HEAD 
                                                   Max.-Head-Change                         Max.-Flux-Residual
  Residual-Control   Outer-Iter.   Inner-Iter.     Column Row Layer    Maximum-Head-Change  Column Row Layer    Maximum-Flux-Residual          L2-NORM 
          0                 1           2             4    7     1      -0.1131883034E+00       4    7    1        -0.5915430701E+01      0.1412097874E+02
          0                 2           2             4    7     1       0.1058708171E-01       4   13    1        -0.5804137760E+00      0.1684030692E+01
          0                 3           2             7   13     1      -0.9738682309E-03       7   13    1        -0.5436246266E-01      0.1509211774E+00
          0                 4           1             7   13     1       0.6628587558E-04       7   13    1         0.3800372316E-02      0.1002367276E-01

    ------------------------------------------------
       NWT REQUIRED            4 OUTER ITERATIONS 
       AND A TOTAL OF          7 INNER ITERATIONS.
    ------------------------------------------------

 NO OUTPUT CONTROL FOR STRESS PERIOD    8   TIME STEP    3
 
 SOLVING FOR HEAD 
                                                   Max.-Head-Change                         Max.-Flux-Residual
  Residual-Control   Outer-Iter.   Inner-Iter.     Column Row Layer    Maximum-Head-Change  Column Row Layer    Maximum-Flux-Residual          L2-NORM 
          0                 1           2             4    7     1      -0.1124832164E+00       4    7    1        -0.5880970346E+01      0.1387373096E+02
          0                 2           2             4    7     1       0.1051875357E-01       4   13    1        -0.5816103818E+00      0.1666326184E+01
          0                 3           2             7   13     1      -0.9702557347E-03       7   13    1        -0.5416127094E-01      0.1495799510E+00
          0                 4           1             7   13     1       0.6604030442E-04       7   13    1         0.3786310383E-02      0.1009650974E-01

    ------------------------------------------------
       NWT REQUIRED            4 OUTER ITERATIONS 
       AND A TOTAL OF          7 INNER ITERATIONS.
    ------------------------------------------------

 NO OUTPUT CONTROL FOR STRESS PERIOD    8   TIME STEP    4
 
 SOLVING FOR HEAD 
                                                   Max.-Head-Change                         Max.-Flux-Residual
  Residual-Control   Outer-Iter.   Inner-Iter.     Column Row Layer    Maximum-Head-Change  Column Row Layer    Maximum-Flux-Residual          L2-NORM 
          0                 1           2             4    7     1      -0.1117388022E+00       4    7    1        -0.5844297171E+01      0.1363856788E+02
          0                 2           2             4    7     1       0.1044587991E-01       4   13    1        -0.5826987874E+00      0.1648627857E+01
          0                 3           2             7   13     1      -0.9667619427E-03       7   13    1        -0.5396669295E-01      0.1482343850E+00
          0                 4           1             5    6     1      -0.6630282787E-04       7   13    1         0.3772655751E-02      0.1016808799E-01

    ------------------------------------------------
       NWT REQUIRED            4 OUTER ITERATIONS 
       AND A TOTAL OF          7 INNER ITERATIONS.
    ------------------------------------------------

 OUTPUT CONTROL FOR STRESS PERIOD    8   TIME STEP    5
    PRINT BUDGET
    SAVE BUDGET
 UBDSV1 SAVING "         STORAGE" ON UNIT 102 AT TIME STEP  5, STRESS PERIOD   8
 UBDSV2 SAVING "   CONSTANT HEAD" ON UNIT 102 AT TIME STEP  5, STRESS PERIOD   8
 UBDSV1 SAVING "FLOW RIGHT FACE " ON UNIT 102 AT TIME STEP  5, STRESS PERIOD   8
 UBDSV1 SAVING "FLOW FRONT FACE " ON UNIT 102 AT TIME STEP  5, STRESS PERIOD   8

  HEAD DEP BOUNDS   PERIOD    8   STEP     5
 BOUNDARY      1   LAYER   1   ROW    13   COL     1   RATE   -0.287782    
 BOUNDARY      2   LAYER   1   ROW    14   COL     9   RATE    0.287953    



 STREAM LISTING     PERIOD      8   STEP        5

 LAYER ROW COL. STREAM  RCH.  FLOW INTO     FLOW TO   FLOW OUT OF   OVRLND.     DIRECT     STREAM       STREAM     STREAM     STREAM   STREAMBED  STREAMBED
                SEG.NO.  NO.  STRM. RCH.    AQUIFER    STRM. RCH.    RUNOFF     PRECIP       ET          HEAD       DEPTH      WIDTH   CONDCTNC.   GRADIENT

   1    1    1     1     1    2.8125E+01  2.5915E-01   2.7866E+01  0.000E+00  0.000E+00  0.000E+00  1.09427E+03  1.223E+00  1.364E+01  6.137E-02  1.408E+00
   1    2    2     1     2    2.7866E+01  4.0087E-01   2.7465E+01  0.000E+00  0.000E+00  0.000E+00  1.08928E+03  1.218E+00  1.358E+01  9.503E-02  1.406E+00
   1    3    3     1     3    2.7465E+01  3.4143E-01   2.7124E+01  0.000E+00  0.000E+00  0.000E+00  1.08363E+03  1.213E+00  1.351E+01  8.104E-02  1.404E+00
   1    3    4     1     4    2.7124E+01  3.1403E-01   2.6810E+01  0.000E+00  0.000E+00  0.000E+00  1.07862E+03  1.209E+00  1.344E+01  7.461E-02  1.403E+00
   1    4    5     2     1    2.4810E+01  3.2739E-01   2.4482E+01  0.000E+00  0.000E+00  0.000E+00  1.07313E+03  1.197E+00  1.200E+01  7.800E-02  1.399E+00
   1    5    6     2     2    2.4482E+01  2.5133E-01   2.4231E+01  0.000E+00  0.000E+00  0.000E+00  1.06770E+03  1.189E+00  1.200E+01  6.000E-02  1.396E+00
   1    6    6     2     3    2.4231E+01  2.5089E-01   2.3980E+01  0.000E+00  0.000E+00  0.000E+00  1.06297E+03  1.181E+00  1.200E+01  6.000E-02  1.394E+00
   1    7    6     2     4    2.3980E+01  2.5044E-01   2.3730E+01  0.000E+00  0.000E+00  0.000E+00  1.05825E+03  1.174E+00  1.200E+01  6.000E-02  1.391E+00
   1    8    6     2     5    2.3730E+01  2.5000E-01   2.3480E+01  0.000E+00  0.000E+00  0.000E+00  1.05353E+03  1.167E+00  1.200E+01  6.000E-02  1.389E+00
   1    3    5     3     1    2.0000E+00  2.8252E-01   1.7175E+00  0.000E+00  0.000E+00  0.000E+00  1.07555E+03  1.909E+00  9.636E+00  7.227E-02  1.955E+00
   1    3    6     3     2    1.7175E+00  2.4905E-01   1.4684E+00  0.000E+00  0.000E+00  0.000E+00  1.07264E+03  1.727E+00  8.909E+00  6.682E-02  1.864E+00
   1    3    7     3     3    1.4684E+00  1.9718E-01   1.2712E+00  0.000E+00  0.000E+00  0.000E+00  1.06987E+03  1.555E+00  8.218E+00  5.547E-02  1.777E+00
   1    4    8     3     4    1.2712E+00  2.2567E-01   1.0456E+00  0.000E+00  0.000E+00  0.000E+00  1.06682E+03  1.364E+00  7.455E+00  6.709E-02  1.682E+00
   1    5    8     3     5    1.0456E+00  1.5790E-01   8.8768E-01  0.000E+00  0.000E+00  0.000E+00  1.06362E+03  1.164E+00  6.655E+00  4.991E-02  1.582E+00
   1    6    8     3     6    8.8768E-01  5.5980E-02   8.3170E-01  0.000E+00  0.000E+00  0.000E+00  1.06158E+03  1.036E+00  6.145E+00  1.844E-02  1.518E+00
   1    5   10     4     1    1.0000E+01  9.0919E-02   9.9091E+00  0.000E+00  0.000E+00  0.000E+00  1.07836E+03  6.368E-01  1.000E+01  2.500E-02  1.212E+00
   1    5    9     4     2    9.9091E+00  1.8158E-01   9.7275E+00  0.000E+00  0.000E+00  0.000E+00  1.07154E+03  6.315E-01  1.000E+01  5.000E-02  1.211E+00
   1    6    8     4     3    9.7275E+00  1.2689E-01   9.6006E+00  0.000E+00  0.000E+00  0.000E+00  1.06381E+03  6.256E-01  1.000E+01  3.500E-02  1.209E+00
   1    6    8     5     1    1.0432E+01  2.2686E-01   1.0205E+01  0.000E+00  0.000E+00  0.000E+00  1.05868E+03  6.790E-01  1.542E+01  6.166E-02  1.226E+00
   1    7    7     5     2    1.0205E+01  2.7894E-01   9.9265E+00  0.000E+00  0.000E+00  0.000E+00  1.05417E+03  6.732E-01  1.519E+01  7.594E-02  1.224E+00
   1    8    7     5     3    9.9265E+00  1.9221E-01   9.7343E+00  0.000E+00  0.000E+00  0.000E+00  1.04992E+03  6.676E-01  1.497E+01  5.241E-02  1.223E+00
   1    8    6     5     4    9.7343E+00  1.3577E-01   9.5985E+00  0.000E+00  0.000E+00  0.000E+00  1.04691E+03  6.637E-01  1.482E+01  3.706E-02  1.221E+00
   1    9    6     6     1    9.5985E+00  2.2097E-01   9.3776E+00  0.000E+00  0.000E+00  0.000E+00  1.04341E+03  6.828E-01  1.200E+01  6.000E-02  1.228E+00
   1   10    7     6     2    9.3776E+00  2.2039E-01   9.1572E+00  0.000E+00  0.000E+00  0.000E+00  1.03885E+03  6.732E-01  1.200E+01  6.000E-02  1.224E+00
   1   11    7     6     3    9.1572E+00  2.1981E-01   8.9374E+00  0.000E+00  0.000E+00  0.000E+00  1.03430E+03  6.636E-01  1.200E+01  6.000E-02  1.221E+00
   1   12    7     6     4    8.9374E+00  2.1923E-01   8.7181E+00  0.000E+00  0.000E+00  0.000E+00  1.02974E+03  6.539E-01  1.200E+01  6.000E-02  1.218E+00
   1   13    7     6     5    8.7181E+00 -7.0146E-02   8.7883E+00  0.000E+00  0.000E+00  0.000E+00  1.02656E+03  6.505E-01  1.200E+01  2.400E-01 -9.743E-02
   1   14    9     7     1    1.5000E+02  1.3681E+00   1.4863E+02  0.000E+00  0.000E+00  0.000E+00  1.03987E+03  2.288E+00  5.529E+01  5.593E-01  8.153E-01
   1   13    8     7     2    1.4863E+02  1.9150E+00   1.4672E+02  0.000E+00  0.000E+00  0.000E+00  1.03478E+03  2.279E+00  5.526E+01  6.148E-01  1.038E+00
   1   13    7     7     3    1.4672E+02  1.5842E+00   1.4513E+02  0.000E+00  0.000E+00  0.000E+00  1.02969E+03  2.270E+00  5.521E+01  5.584E-01  9.457E-01
   1   13    6     8     1    1.5392E+02  9.3462E-01   1.5299E+02  0.000E+00  0.000E+00  0.000E+00  1.02472E+03  2.841E+00  4.119E+01  4.198E-01  7.421E-01
   1   13    5     8     2    1.5299E+02  1.9625E-01   1.5279E+02  0.000E+00  0.000E+00  0.000E+00  1.01846E+03  2.837E+00  4.114E+01  4.192E-01  1.561E-01
   1   13    4     8     3    1.5279E+02 -2.3913E+00   1.5518E+02  0.000E+00  0.000E+00  0.000E+00  1.01222E+03  2.845E+00  4.125E+01  4.203E+00 -1.896E-01
   1   13    3     8     4    1.5518E+02 -3.6504E+00   1.5883E+02  0.000E+00  0.000E+00  0.000E+00  1.00599E+03  2.865E+00  4.155E+01  4.234E+00 -2.874E-01
   1   13    2     8     5    1.5883E+02 -2.6464E+00   1.6148E+02  0.000E+00  0.000E+00  0.000E+00  9.99762E+02  2.887E+00  4.186E+01  4.266E+00 -2.068E-01
   1   13    1     8     6    1.6148E+02 -2.0472E+00   1.6353E+02  0.000E+00  0.000E+00  0.000E+00  9.94778E+02  2.903E+00  4.209E+01  2.573E+00 -2.652E-01
   1    8    6     9     1    2.3480E+01  0.0000E+00   2.3480E+01  0.000E+00  0.000E+00  0.000E+00  1.08253E+03  3.782E+00  4.000E+00  0.000E+00  2.261E+00
   1    8    5     9     2    2.3480E+01  0.0000E+00   2.3480E+01  0.000E+00  0.000E+00  0.000E+00  1.08203E+03  3.782E+00  4.000E+00  0.000E+00  2.261E+00



 UBDSV3 SAVING "           GW ET" ON UNIT  61 AT TIME STEP  5, STRESS PERIOD   8
 UBDSV3 SAVING "    UZF RECHARGE" ON UNIT  61 AT TIME STEP  5, STRESS PERIOD   8
 UBDSV3 SAVING " SURFACE LEAKAGE" ON UNIT  61 AT TIME STEP  5, STRESS PERIOD   8
 UBDSV3 SAVING "       HORT+DUNN" ON UNIT  61 AT TIME STEP  5, STRESS PERIOD   8
 UBDSV3 SAVING "  STORAGE CHANGE" ON UNIT  61 AT TIME STEP  5, STRESS PERIOD   8


UNSATURATED ZONE PACKAGE VOLUMETRIC BUDGET FOR  TIME STEP     5 STRESS PERIOD    8
  ------------------------------------------------------------------------------



     CUMULATIVE VOLUMES      L**3       RATES FOR THIS TIME STEP      L**3/T
     ------------------                 ------------------------

           IN:                                      IN:
           ---                                      ---
        INFILTRATION =   183577798.5383          INFILTRATION =          64.1984

          OUT:                                     OUT:
          ----                                     ----
              UZF ET =   164032974.1270                UZF ET =          64.0905
        UZF RECHARGE =       73224.0000          UZF RECHARGE =       0.0000E+00

            IN - OUT =    19471600.4114              IN - OUT =           0.1080

          STORAGE:                                 STORAGE:
          --------                                 --------
      STORAGE CHANGE =    19471599.1695        STORAGE CHANGE =           0.1080

 PERCENT DISCREPANCY IS DIFFERENCE BETWEEN IN-OUT MINUS CHANGE IN STORAGE
 DIVIDED BY THE AVERAGE OF IN AND OUT TIMES 100

 PERCENT DISCREPANCY =           0.00     PERCENT DISCREPANCY =           0.00






 

            AG WELLS      PERIOD    8   STEP   5
 AG WELL      1   LAYER   1   ROW     6   COL     4   RATE    -6.05181    
 AG WELL      2   LAYER   1   ROW     6   COL     5   RATE    -6.05181    
 AG WELL      3   LAYER   1   ROW     7   COL     4   RATE    -6.05181    
 AG WELL      4   LAYER   1   ROW     7   COL     5   RATE    -6.05181    
 AG WELL      5   LAYER   1   ROW     8   COL     4   RATE    -6.05181    
 AG WELL      6   LAYER   1   ROW     8   COL     5   RATE    -6.05181    
 
 

   DIVERSION SEGMENTS     PERIOD    8   STEP   5
 SEGMENT      9   RATE     23.4796    
 
 

        SW IRRIGATION     PERIOD    8   STEP   5
 SEGMENT      9   ROW     6   COL     4   RATE     3.91334    
 SEGMENT      9   ROW     6   COL     5   RATE     3.91334    
 SEGMENT      9   ROW     7   COL     4   RATE     3.91334    
 SEGMENT      9   ROW     7   COL     5   RATE     3.91334    
 SEGMENT      9   ROW     8   COL     4   RATE     3.91334    
 SEGMENT      9   ROW     8   COL     5   RATE     3.91334    
 
 

        GW IRRIGATION     PERIOD    8   STEP   5
 AG WELL      1   ROW     6   COL     4   RATE     6.05181    
 AG WELL      2   ROW     6   COL     5   RATE     6.05181    
 AG WELL      3   ROW     7   COL     4   RATE     6.05181    
 AG WELL      4   ROW     7   COL     5   RATE     6.05181    
 AG WELL      5   ROW     8   COL     4   RATE     6.05181    
 AG WELL      6   ROW     8   COL     5   RATE     6.05181    
 
1
  VOLUMETRIC BUDGET FOR AGRICULTURAL FIELDS AT  END OF TIME STEP    5, STRESS PERIOD   8
  ------------------------------------------------------------------------------

     CUMULATIVE VOLUMES      L**3       RATES FOR THIS TIME STEP      L**3/T
     ------------------                 ------------------------

           IN:                                      IN:
           ---                                      ---
               AG WELLS  =    15917785.0000                 AG WELLS  =          36.3109
      DIVERSION SEGMENTS =    96102560.0000        DIVERSION SEGMENTS =          23.4796
           GW IRRIGATION =           0.0000             GW IRRIGATION =           0.0000
           SW IRRIGATION =           0.0000             SW IRRIGATION =           0.0000
        SYSTEM LOSSES GW =           0.0000          SYSTEM LOSSES GW =           0.0000
        SYSTEM LOSSES SW =           0.0000          SYSTEM LOSSES SW =           0.0000

                TOTAL IN =   112020344.0000                  TOTAL IN =          59.7905

          OUT:                                     OUT:
          ----                                     ----
               AG WELLS  =           0.0000                 AG WELLS  =           0.0000
      DIVERSION SEGMENTS =           0.0000        DIVERSION SEGMENTS =           0.0000
           GW IRRIGATION =    15917785.0000             GW IRRIGATION =          36.3109
           SW IRRIGATION =    96104472.0000             SW IRRIGATION =          23.4801
        SYSTEM LOSSES GW =           0.0000          SYSTEM LOSSES GW =           0.0000
        SYSTEM LOSSES SW =           0.0000          SYSTEM LOSSES SW =           0.0000

               TOTAL OUT =   112022256.0000                 TOTAL OUT =          59.7909

                IN - OUT =       -1912.0000                  IN - OUT =      -4.6921E-04

     PERCENT DISCREPANCY =          -0.00         PERCENT DISCREPANCY =          -0.00



1
  VOLUMETRIC BUDGET FOR ENTIRE MODEL AT END OF TIME STEP    5, STRESS PERIOD   8
  ------------------------------------------------------------------------------

     CUMULATIVE VOLUMES      L**3       RATES FOR THIS TIME STEP      L**3/T
     ------------------                 ------------------------

           IN:                                      IN:
           ---                                      ---
             STORAGE     =    26768184.0000               STORAGE     =          36.5402
       CONSTANT HEAD     =           0.0000         CONSTANT HEAD     =           0.0000
     HEAD DEP BOUNDS     =     4693686.5000       HEAD DEP BOUNDS     =           0.2880
      STREAM LEAKAGE     =   193256304.0000        STREAM LEAKAGE     =          11.9256
        UZF RECHARGE     =       73223.9531          UZF RECHARGE     =           0.0000
               GW ET     =           0.0000                 GW ET     =           0.0000
     SURFACE LEAKAGE     =           0.0000       SURFACE LEAKAGE     =           0.0000
           AG WELLS      =           0.0000             AG WELLS      =           0.0000

                TOTAL IN =   224791392.0000                  TOTAL IN =          48.7537

          OUT:                                     OUT:
          ----                                     ----
             STORAGE     =    36245668.0000               STORAGE     =           1.3488
       CONSTANT HEAD     =           0.0000         CONSTANT HEAD     =           0.0000
     HEAD DEP BOUNDS     =     4704702.5000       HEAD DEP BOUNDS     =           0.2878
      STREAM LEAKAGE     =   167916048.0000        STREAM LEAKAGE     =          10.8054
        UZF RECHARGE     =           0.0000          UZF RECHARGE     =           0.0000
               GW ET     =           0.0000                 GW ET     =           0.0000
     SURFACE LEAKAGE     =           0.0000       SURFACE LEAKAGE     =           0.0000
           AG WELLS      =    15917785.0000             AG WELLS      =          36.3109

               TOTAL OUT =   224784208.0000                 TOTAL OUT =          48.7529

                IN - OUT =        7184.0000                  IN - OUT =       8.2397E-04

     PERCENT DISCREPANCY =           0.00         PERCENT DISCREPANCY =           0.00






         TIME SUMMARY AT END OF TIME STEP    5 IN STRESS PERIOD    8
                    SECONDS     MINUTES      HOURS       DAYS        YEARS
                    -----------------------------------------------------------
   TIME STEP LENGTH  87667.      1461.1      24.352      1.0147     2.77799E-03
 STRESS PERIOD TIME 4.38333E+05  7305.6      121.76      5.0733     1.38899E-02
         TOTAL TIME 1.63048E+07 2.71746E+05  4529.1      188.71     0.51667    
1
 
 SOLVING FOR HEAD 
                                                   Max.-Head-Change                         Max.-Flux-Residual
  Residual-Control   Outer-Iter.   Inner-Iter.     Column Row Layer    Maximum-Head-Change  Column Row Layer    Maximum-Flux-Residual          L2-NORM 
          0                 1           2             4    7     1      -0.1109593644E+00       4    7    1        -0.5805608609E+01      0.1341443232E+02
          0                 2           2             4    7     1       0.1036961821E-01       4   13    1        -0.5836886209E+00      0.1631877084E+01
          0                 3           2             7   13     1      -0.9633722440E-03       7   13    1        -0.5377791522E-01      0.1469547594E+00
          0                 4           1             5    6     1      -0.6707380533E-04       5    6    1        -0.3795746331E-02      0.1023814523E-01

    ------------------------------------------------
       NWT REQUIRED            4 OUTER ITERATIONS 
       AND A TOTAL OF          7 INNER ITERATIONS.
    ------------------------------------------------

 NO OUTPUT CONTROL FOR STRESS PERIOD    8   TIME STEP    6
 
 SOLVING FOR HEAD 
                                                   Max.-Head-Change                         Max.-Flux-Residual
  Residual-Control   Outer-Iter.   Inner-Iter.     Column Row Layer    Maximum-Head-Change  Column Row Layer    Maximum-Flux-Residual          L2-NORM 
          0                 1           2             4    7     1      -0.1101487876E+00       4    7    1        -0.5765118848E+01      0.1320054590E+02
          0                 2           2             4    7     1       0.1029032849E-01       4   13    1        -0.5845907295E+00      0.1615997975E+01
          0                 3           2             7   13     1      -0.9600836866E-03       7   13    1        -0.5359477185E-01      0.1457327065E+00
          0                 4           1             5    6     1      -0.6781056778E-04       5    8    1        -0.3838754496E-02      0.1030656253E-01

    ------------------------------------------------
       NWT REQUIRED            4 OUTER ITERATIONS 
       AND A TOTAL OF          7 INNER ITERATIONS.
    ------------------------------------------------

 NO OUTPUT CONTROL FOR STRESS PERIOD    8   TIME STEP    7
 
 SOLVING FOR HEAD 
                                                   Max.-Head-Change                         Max.-Flux-Residual
  Residual-Control   Outer-Iter.   Inner-Iter.     Column Row Layer    Maximum-Head-Change  Column Row Layer    Maximum-Flux-Residual          L2-NORM 
          0                 1           2             4    7     1      -0.1093100500E+00       4    7    1        -0.5722992454E+01      0.1299619212E+02
          0                 2           2             4    7     1       0.1020828258E-01       4   13    1        -0.5854129645E+00      0.1600922945E+01
          0                 3           2             7   13     1      -0.9568899300E-03       7   13    1        -0.5341690808E-01      0.1445986429E+00
          0                 4           1             5    6     1      -0.6853325727E-04       5    8    1        -0.3880827356E-02      0.1038011948E-01

    ------------------------------------------------
       NWT REQUIRED            4 OUTER ITERATIONS 
       AND A TOTAL OF          7 INNER ITERATIONS.
    ------------------------------------------------

 NO OUTPUT CONTROL FOR STRESS PERIOD    8   TIME STEP    8
 
 SOLVING FOR HEAD 
                                                   Max.-Head-Change                         Max.-Flux-Residual
  Residual-Control   Outer-Iter.   Inner-Iter.     Column Row Layer    Maximum-Head-Change  Column Row Layer    Maximum-Flux-Residual          L2-NORM 
          0                 1           2             4    7     1      -0.1084463204E+00       4    7    1        -0.5679405475E+01      0.1280068443E+02
          0                 2           2             4    7     1       0.1012381534E-01       4   13    1        -0.5861622504E+00      0.1586593070E+01
          0                 3           2             7   13     1      -0.9537879701E-03       7   13    1        -0.5324416084E-01      0.1434793696E+00
          0                 4           1             5    6     1      -0.6920782068E-04       5    8    1        -0.3920012227E-02      0.1043842854E-01

    ------------------------------------------------
       NWT REQUIRED            4 OUTER ITERATIONS 
       AND A TOTAL OF          7 INNER ITERATIONS.
    ------------------------------------------------

 NO OUTPUT CONTROL FOR STRESS PERIOD    8   TIME STEP    9
 
 SOLVING FOR HEAD 
                                                   Max.-Head-Change                         Max.-Flux-Residual
  Residual-Control   Outer-Iter.   Inner-Iter.     Column Row Layer    Maximum-Head-Change  Column Row Layer    Maximum-Flux-Residual          L2-NORM 
          0                 1           2             4    7     1      -0.1075607146E+00       4    7    1        -0.5634530070E+01      0.1261344642E+02
          0                 2           2             4    7     1       0.1003720310E-01       4   13    1        -0.5868457043E+00      0.1572951878E+01
          0                 3           2             7   13     1      -0.9507748097E-03       7   13    1        -0.5307636002E-01      0.1424043595E+00
          0                 4           1             5    6     1      -0.6985532201E-04       5    8    1        -0.3957526778E-02      0.1050890821E-01

    ------------------------------------------------
       NWT REQUIRED            4 OUTER ITERATIONS 
       AND A TOTAL OF          7 INNER ITERATIONS.
    ------------------------------------------------

 OUTPUT CONTROL FOR STRESS PERIOD    8   TIME STEP   10
    PRINT BUDGET
    SAVE BUDGET
 UBDSV1 SAVING "         STORAGE" ON UNIT 102 AT TIME STEP 10, STRESS PERIOD   8
 UBDSV2 SAVING "   CONSTANT HEAD" ON UNIT 102 AT TIME STEP 10, STRESS PERIOD   8
 UBDSV1 SAVING "FLOW RIGHT FACE " ON UNIT 102 AT TIME STEP 10, STRESS PERIOD   8
 UBDSV1 SAVING "FLOW FRONT FACE " ON UNIT 102 AT TIME STEP 10, STRESS PERIOD   8

  HEAD DEP BOUNDS   PERIOD    8   STEP    10
 BOUNDARY      1   LAYER   1   ROW    13   COL     1   RATE   -0.287538    
 BOUNDARY      2   LAYER   1   ROW    14   COL     9   RATE    0.287956    



 STREAM LISTING     PERIOD      8   STEP       10

 LAYER ROW COL. STREAM  RCH.  FLOW INTO     FLOW TO   FLOW OUT OF   OVRLND.     DIRECT     STREAM       STREAM     STREAM     STREAM   STREAMBED  STREAMBED
                SEG.NO.  NO.  STRM. RCH.    AQUIFER    STRM. RCH.    RUNOFF     PRECIP       ET          HEAD       DEPTH      WIDTH   CONDCTNC.   GRADIENT

   1    1    1     1     1    2.8125E+01  2.5915E-01   2.7866E+01  0.000E+00  0.000E+00  0.000E+00  1.09427E+03  1.223E+00  1.364E+01  6.137E-02  1.408E+00
   1    2    2     1     2    2.7866E+01  4.0087E-01   2.7465E+01  0.000E+00  0.000E+00  0.000E+00  1.08928E+03  1.218E+00  1.358E+01  9.503E-02  1.406E+00
   1    3    3     1     3    2.7465E+01  3.4143E-01   2.7124E+01  0.000E+00  0.000E+00  0.000E+00  1.08363E+03  1.213E+00  1.351E+01  8.104E-02  1.404E+00
   1    3    4     1     4    2.7124E+01  3.1403E-01   2.6810E+01  0.000E+00  0.000E+00  0.000E+00  1.07862E+03  1.209E+00  1.344E+01  7.461E-02  1.403E+00
   1    4    5     2     1    2.4810E+01  3.2739E-01   2.4482E+01  0.000E+00  0.000E+00  0.000E+00  1.07313E+03  1.197E+00  1.200E+01  7.800E-02  1.399E+00
   1    5    6     2     2    2.4482E+01  2.5133E-01   2.4231E+01  0.000E+00  0.000E+00  0.000E+00  1.06770E+03  1.189E+00  1.200E+01  6.000E-02  1.396E+00
   1    6    6     2     3    2.4231E+01  2.5089E-01   2.3980E+01  0.000E+00  0.000E+00  0.000E+00  1.06297E+03  1.181E+00  1.200E+01  6.000E-02  1.394E+00
   1    7    6     2     4    2.3980E+01  2.5044E-01   2.3730E+01  0.000E+00  0.000E+00  0.000E+00  1.05825E+03  1.174E+00  1.200E+01  6.000E-02  1.391E+00
   1    8    6     2     5    2.3730E+01  2.5000E-01   2.3480E+01  0.000E+00  0.000E+00  0.000E+00  1.05353E+03  1.167E+00  1.200E+01  6.000E-02  1.389E+00
   1    3    5     3     1    2.0000E+00  2.8252E-01   1.7175E+00  0.000E+00  0.000E+00  0.000E+00  1.07555E+03  1.909E+00  9.636E+00  7.227E-02  1.955E+00
   1    3    6     3     2    1.7175E+00  2.4905E-01   1.4684E+00  0.000E+00  0.000E+00  0.000E+00  1.07264E+03  1.727E+00  8.909E+00  6.682E-02  1.864E+00
   1    3    7     3     3    1.4684E+00  1.9718E-01   1.2712E+00  0.000E+00  0.000E+00  0.000E+00  1.06987E+03  1.555E+00  8.218E+00  5.547E-02  1.777E+00
   1    4    8     3     4    1.2712E+00  2.2567E-01   1.0456E+00  0.000E+00  0.000E+00  0.000E+00  1.06682E+03  1.364E+00  7.455E+00  6.709E-02  1.682E+00
   1    5    8     3     5    1.0456E+00  1.5790E-01   8.8768E-01  0.000E+00  0.000E+00  0.000E+00  1.06362E+03  1.164E+00  6.655E+00  4.991E-02  1.582E+00
   1    6    8     3     6    8.8768E-01  5.5980E-02   8.3170E-01  0.000E+00  0.000E+00  0.000E+00  1.06158E+03  1.036E+00  6.145E+00  1.844E-02  1.518E+00
   1    5   10     4     1    1.0000E+01  9.0919E-02   9.9091E+00  0.000E+00  0.000E+00  0.000E+00  1.07836E+03  6.368E-01  1.000E+01  2.500E-02  1.212E+00
   1    5    9     4     2    9.9091E+00  1.8158E-01   9.7275E+00  0.000E+00  0.000E+00  0.000E+00  1.07154E+03  6.315E-01  1.000E+01  5.000E-02  1.211E+00
   1    6    8     4     3    9.7275E+00  1.2689E-01   9.6006E+00  0.000E+00  0.000E+00  0.000E+00  1.06381E+03  6.256E-01  1.000E+01  3.500E-02  1.209E+00
   1    6    8     5     1    1.0432E+01  2.2686E-01   1.0205E+01  0.000E+00  0.000E+00  0.000E+00  1.05868E+03  6.790E-01  1.542E+01  6.166E-02  1.226E+00
   1    7    7     5     2    1.0205E+01  2.7894E-01   9.9265E+00  0.000E+00  0.000E+00  0.000E+00  1.05417E+03  6.732E-01  1.519E+01  7.594E-02  1.224E+00
   1    8    7     5     3    9.9265E+00  1.9221E-01   9.7343E+00  0.000E+00  0.000E+00  0.000E+00  1.04992E+03  6.676E-01  1.497E+01  5.241E-02  1.223E+00
   1    8    6     5     4    9.7343E+00  1.3577E-01   9.5985E+00  0.000E+00  0.000E+00  0.000E+00  1.04691E+03  6.637E-01  1.482E+01  3.706E-02  1.221E+00
   1    9    6     6     1    9.5985E+00  2.2097E-01   9.3776E+00  0.000E+00  0.000E+00  0.000E+00  1.04341E+03  6.828E-01  1.200E+01  6.000E-02  1.228E+00
   1   10    7     6     2    9.3776E+00  2.2039E-01   9.1572E+00  0.000E+00  0.000E+00  0.000E+00  1.03885E+03  6.732E-01  1.200E+01  6.000E-02  1.224E+00
   1   11    7     6     3    9.1572E+00  2.1981E-01   8.9374E+00  0.000E+00  0.000E+00  0.000E+00  1.03430E+03  6.636E-01  1.200E+01  6.000E-02  1.221E+00
   1   12    7     6     4    8.9374E+00  2.1923E-01   8.7181E+00  0.000E+00  0.000E+00  0.000E+00  1.02974E+03  6.539E-01  1.200E+01  6.000E-02  1.218E+00
   1   13    7     6     5    8.7181E+00 -6.9271E-02   8.7874E+00  0.000E+00  0.000E+00  0.000E+00  1.02656E+03  6.505E-01  1.200E+01  2.400E-01 -9.621E-02
   1   14    9     7     1    1.5000E+02  1.3681E+00   1.4863E+02  0.000E+00  0.000E+00  0.000E+00  1.03987E+03  2.288E+00  5.529E+01  5.593E-01  8.154E-01
   1   13    8     7     2    1.4863E+02  1.9152E+00   1.4672E+02  0.000E+00  0.000E+00  0.000E+00  1.03478E+03  2.279E+00  5.526E+01  6.148E-01  1.038E+00
   1   13    7     7     3    1.4672E+02  1.5862E+00   1.4513E+02  0.000E+00  0.000E+00  0.000E+00  1.02969E+03  2.270E+00  5.521E+01  5.584E-01  9.469E-01
   1   13    6     8     1    1.5392E+02  9.3612E-01   1.5298E+02  0.000E+00  0.000E+00  0.000E+00  1.02472E+03  2.841E+00  4.119E+01  4.198E-01  7.433E-01
   1   13    5     8     2    1.5298E+02  1.9782E-01   1.5278E+02  0.000E+00  0.000E+00  0.000E+00  1.01846E+03  2.837E+00  4.114E+01  4.192E-01  1.573E-01
   1   13    4     8     3    1.5278E+02 -2.3692E+00   1.5515E+02  0.000E+00  0.000E+00  0.000E+00  1.01222E+03  2.845E+00  4.125E+01  4.203E+00 -1.879E-01
   1   13    3     8     4    1.5515E+02 -3.6284E+00   1.5878E+02  0.000E+00  0.000E+00  0.000E+00  1.00599E+03  2.865E+00  4.155E+01  4.234E+00 -2.857E-01
   1   13    2     8     5    1.5878E+02 -2.6208E+00   1.6140E+02  0.000E+00  0.000E+00  0.000E+00  9.99761E+02  2.886E+00  4.185E+01  4.265E+00 -2.048E-01
   1   13    1     8     6    1.6140E+02 -2.0317E+00   1.6343E+02  0.000E+00  0.000E+00  0.000E+00  9.94777E+02  2.902E+00  4.208E+01  2.573E+00 -2.632E-01
   1    8    6     9     1    2.3480E+01  0.0000E+00   2.3480E+01  0.000E+00  0.000E+00  0.000E+00  1.08253E+03  3.782E+00  4.000E+00  0.000E+00  2.261E+00
   1    8    5     9     2    2.3480E+01  0.0000E+00   2.3480E+01  0.000E+00  0.000E+00  0.000E+00  1.08203E+03  3.782E+00  4.000E+00  0.000E+00  2.261E+00



 UBDSV3 SAVING "           GW ET" ON UNIT  61 AT TIME STEP 10, STRESS PERIOD   8
 UBDSV3 SAVING "    UZF RECHARGE" ON UNIT  61 AT TIME STEP 10, STRESS PERIOD   8
 UBDSV3 SAVING " SURFACE LEAKAGE" ON UNIT  61 AT TIME STEP 10, STRESS PERIOD   8
 UBDSV3 SAVING "       HORT+DUNN" ON UNIT  61 AT TIME STEP 10, STRESS PERIOD   8
 UBDSV3 SAVING "  STORAGE CHANGE" ON UNIT  61 AT TIME STEP 10, STRESS PERIOD   8


UNSATURATED ZONE PACKAGE VOLUMETRIC BUDGET FOR  TIME STEP    10 STRESS PERIOD    8
  ------------------------------------------------------------------------------



     CUMULATIVE VOLUMES      L**3       RATES FOR THIS TIME STEP      L**3/T
     ------------------                 ------------------------

           IN:                                      IN:
           ---                                      ---
        INFILTRATION =   211718064.5725          INFILTRATION =          64.1983

          OUT:                                     OUT:
          ----                                     ----
              UZF ET =   192125937.5986                UZF ET =          64.0904
        UZF RECHARGE =       73224.0000          UZF RECHARGE =       0.0000E+00

            IN - OUT =    19518902.9739              IN - OUT =           0.1079

          STORAGE:                                 STORAGE:
          --------                                 --------
      STORAGE CHANGE =    19518901.3923        STORAGE CHANGE =           0.1079

 PERCENT DISCREPANCY IS DIFFERENCE BETWEEN IN-OUT MINUS CHANGE IN STORAGE
 DIVIDED BY THE AVERAGE OF IN AND OUT TIMES 100

 PERCENT DISCREPANCY =           0.00     PERCENT DISCREPANCY =           0.00






 

            AG WELLS      PERIOD    8   STEP  10
 AG WELL      1   LAYER   1   ROW     6   COL     4   RATE    -6.05178    
 AG WELL      2   LAYER   1   ROW     6   COL     5   RATE    -6.05178    
 AG WELL      3   LAYER   1   ROW     7   COL     4   RATE    -6.05178    
 AG WELL      4   LAYER   1   ROW     7   COL     5   RATE    -6.05178    
 AG WELL      5   LAYER   1   ROW     8   COL     4   RATE    -6.05178    
 AG WELL      6   LAYER   1   ROW     8   COL     5   RATE    -6.05178    
 
 

   DIVERSION SEGMENTS     PERIOD    8   STEP  10
 SEGMENT      9   RATE     23.4796    
 
 

        SW IRRIGATION     PERIOD    8   STEP  10
 SEGMENT      9   ROW     6   COL     4   RATE     3.91334    
 SEGMENT      9   ROW     6   COL     5   RATE     3.91334    
 SEGMENT      9   ROW     7   COL     4   RATE     3.91334    
 SEGMENT      9   ROW     7   COL     5   RATE     3.91334    
 SEGMENT      9   ROW     8   COL     4   RATE     3.91334    
 SEGMENT      9   ROW     8   COL     5   RATE     3.91334    
 
 

        GW IRRIGATION     PERIOD    8   STEP  10
 AG WELL      1   ROW     6   COL     4   RATE     6.05178    
 AG WELL      2   ROW     6   COL     5   RATE     6.05178    
 AG WELL      3   ROW     7   COL     4   RATE     6.05178    
 AG WELL      4   ROW     7   COL     5   RATE     6.05178    
 AG WELL      5   ROW     8   COL     4   RATE     6.05178    
 AG WELL      6   ROW     8   COL     5   RATE     6.05178    
 
1
  VOLUMETRIC BUDGET FOR AGRICULTURAL FIELDS AT  END OF TIME STEP   10, STRESS PERIOD   8
  ------------------------------------------------------------------------------

     CUMULATIVE VOLUMES      L**3       RATES FOR THIS TIME STEP      L**3/T
     ------------------                 ------------------------

           IN:                                      IN:
           ---                                      ---
               AG WELLS  =    31834008.0000                 AG WELLS  =          36.3107
      DIVERSION SEGMENTS =   106394440.0000        DIVERSION SEGMENTS =          23.4796
           GW IRRIGATION =           0.0000             GW IRRIGATION =           0.0000
           SW IRRIGATION =           0.0000             SW IRRIGATION =           0.0000
        SYSTEM LOSSES GW =           0.0000          SYSTEM LOSSES GW =           0.0000
        SYSTEM LOSSES SW =           0.0000          SYSTEM LOSSES SW =           0.0000

                TOTAL IN =   138228448.0000                  TOTAL IN =          59.7903

          OUT:                                     OUT:
          ----                                     ----
               AG WELLS  =           0.0000                 AG WELLS  =           0.0000
      DIVERSION SEGMENTS =           0.0000        DIVERSION SEGMENTS =           0.0000
           GW IRRIGATION =    31834008.0000             GW IRRIGATION =          36.3107
           SW IRRIGATION =   106396552.0000             SW IRRIGATION =          23.4801
        SYSTEM LOSSES GW =           0.0000          SYSTEM LOSSES GW =           0.0000
        SYSTEM LOSSES SW =           0.0000          SYSTEM LOSSES SW =           0.0000

               TOTAL OUT =   138230560.0000                 TOTAL OUT =          59.7908

                IN - OUT =       -2112.0000                  IN - OUT =      -4.6921E-04

     PERCENT DISCREPANCY =          -0.00         PERCENT DISCREPANCY =          -0.00



1
  VOLUMETRIC BUDGET FOR ENTIRE MODEL AT END OF TIME STEP   10, STRESS PERIOD   8
  ------------------------------------------------------------------------------

     CUMULATIVE VOLUMES      L**3       RATES FOR THIS TIME STEP      L**3/T
     ------------------                 ------------------------

           IN:                                      IN:
           ---                                      ---
             STORAGE     =    42700988.0000               STORAGE     =          36.2358
       CONSTANT HEAD     =           0.0000         CONSTANT HEAD     =           0.0000
     HEAD DEP BOUNDS     =     4819906.5000       HEAD DEP BOUNDS     =           0.2880
      STREAM LEAKAGE     =   198485088.0000        STREAM LEAKAGE     =          11.9309
        UZF RECHARGE     =       73223.9531          UZF RECHARGE     =           0.0000
               GW ET     =           0.0000                 GW ET     =           0.0000
     SURFACE LEAKAGE     =           0.0000       SURFACE LEAKAGE     =           0.0000
           AG WELLS      =           0.0000             AG WELLS      =           0.0000

                TOTAL IN =   246079200.0000                  TOTAL IN =          48.4546

          OUT:                                     OUT:
          ----                                     ----
             STORAGE     =    36778104.0000               STORAGE     =           1.1361
       CONSTANT HEAD     =           0.0000         CONSTANT HEAD     =           0.0000
     HEAD DEP BOUNDS     =     4830781.0000       HEAD DEP BOUNDS     =           0.2875
      STREAM LEAKAGE     =   172628752.0000        STREAM LEAKAGE     =          10.7194
        UZF RECHARGE     =           0.0000          UZF RECHARGE     =           0.0000
               GW ET     =           0.0000                 GW ET     =           0.0000
     SURFACE LEAKAGE     =           0.0000       SURFACE LEAKAGE     =           0.0000
           AG WELLS      =    31834008.0000             AG WELLS      =          36.3107

               TOTAL OUT =   246071648.0000                 TOTAL OUT =          48.4538

                IN - OUT =        7552.0000                  IN - OUT =       8.6212E-04

     PERCENT DISCREPANCY =           0.00         PERCENT DISCREPANCY =           0.00






         TIME SUMMARY AT END OF TIME STEP   10 IN STRESS PERIOD    8
                    SECONDS     MINUTES      HOURS       DAYS        YEARS
                    -----------------------------------------------------------
   TIME STEP LENGTH  87667.      1461.1      24.352      1.0147     2.77799E-03
 STRESS PERIOD TIME 8.76667E+05  14611.      243.52      10.147     2.77799E-02
         TOTAL TIME 1.67431E+07 2.79052E+05  4650.9      193.79     0.53056    
1
 
 SOLVING FOR HEAD 
                                                   Max.-Head-Change                         Max.-Flux-Residual
  Residual-Control   Outer-Iter.   Inner-Iter.     Column Row Layer    Maximum-Head-Change  Column Row Layer    Maximum-Flux-Residual          L2-NORM 
          0                 1           2             4    7     1      -0.1066557553E+00       4    7    1        -0.5588506650E+01      0.1243391102E+02
          0                 2           2             4   13     1      -0.9995369153E-02       4   13    1        -0.5874730046E+00      0.1559955895E+01
          0                 3           2             7   13     1      -0.9478486131E-03       7   13    1        -0.5291340511E-01      0.1413772254E+00
          0                 4           1             5    6     1      -0.7047548377E-04       5    8    1        -0.3993364134E-02      0.1057128078E-01

    ------------------------------------------------
       NWT REQUIRED            4 OUTER ITERATIONS 
       AND A TOTAL OF          7 INNER ITERATIONS.
    ------------------------------------------------

 NO OUTPUT CONTROL FOR STRESS PERIOD    8   TIME STEP   11
 
 SOLVING FOR HEAD 
                                                   Max.-Head-Change                         Max.-Flux-Residual
  Residual-Control   Outer-Iter.   Inner-Iter.     Column Row Layer    Maximum-Head-Change  Column Row Layer    Maximum-Flux-Residual          L2-NORM 
          0                 1           2             4    7     1      -0.1057351558E+00       4    7    1        -0.5541538177E+01      0.1226170951E+02
          0                 2           2             4   13     1      -0.1000493358E-01       4   13    1        -0.5880342795E+00      0.1547554369E+01
          0                 3           2             7   13     1      -0.9450054482E-03       7   13    1        -0.5275507065E-01      0.1403880143E+00
          0                 4           1             5    6     1      -0.7108818800E-04       5    8    1        -0.4028666976E-02      0.1063390271E-01

    ------------------------------------------------
       NWT REQUIRED            4 OUTER ITERATIONS 
       AND A TOTAL OF          7 INNER ITERATIONS.
    ------------------------------------------------

 NO OUTPUT CONTROL FOR STRESS PERIOD    8   TIME STEP   12
 
 SOLVING FOR HEAD 
                                                   Max.-Head-Change                         Max.-Flux-Residual
  Residual-Control   Outer-Iter.   Inner-Iter.     Column Row Layer    Maximum-Head-Change  Column Row Layer    Maximum-Flux-Residual          L2-NORM 
          0                 1           2             4    7     1      -0.1047993369E+00       4    7    1        -0.5493654858E+01      0.1209613048E+02
          0                 2           2             4   13     1      -0.1001382528E-01       4   13    1        -0.5885558796E+00      0.1536241449E+01
          0                 3           2             7   13     1      -0.9422409985E-03       7   13    1        -0.5260112388E-01      0.1394784623E+00
          0                 4           1             5    6     1      -0.7166153806E-04       5    6    1        -0.4059699113E-02      0.1069063667E-01

    ------------------------------------------------
       NWT REQUIRED            4 OUTER ITERATIONS 
       AND A TOTAL OF          7 INNER ITERATIONS.
    ------------------------------------------------

 NO OUTPUT CONTROL FOR STRESS PERIOD    8   TIME STEP   13
 
 SOLVING FOR HEAD 
                                                   Max.-Head-Change                         Max.-Flux-Residual
  Residual-Control   Outer-Iter.   Inner-Iter.     Column Row Layer    Maximum-Head-Change  Column Row Layer    Maximum-Flux-Residual          L2-NORM 
          0                 1           2             4    7     1      -0.1038512301E+00       4    7    1        -0.5445020287E+01      0.1193628896E+02
          0                 2           2             4   13     1      -0.1002198171E-01       4   13    1        -0.5890341772E+00      0.1524335835E+01
          0                 3           2             7   13     1      -0.9395518182E-03       7   13    1        -0.5245137272E-01      0.1385188777E+00
          0                 4           1             5    6     1      -0.7222922637E-04       5    8    1        -0.4094722314E-02      0.1075341333E-01

    ------------------------------------------------
       NWT REQUIRED            4 OUTER ITERATIONS 
       AND A TOTAL OF          7 INNER ITERATIONS.
    ------------------------------------------------

 NO OUTPUT CONTROL FOR STRESS PERIOD    8   TIME STEP   14
 
 SOLVING FOR HEAD 
                                                   Max.-Head-Change                         Max.-Flux-Residual
  Residual-Control   Outer-Iter.   Inner-Iter.     Column Row Layer    Maximum-Head-Change  Column Row Layer    Maximum-Flux-Residual          L2-NORM 
          0                 1           2             4    7     1      -0.1028930580E+00       4    7    1        -0.5395755724E+01      0.1178195598E+02
          0                 2           2             4   13     1      -0.1002944083E-01       4   13    1        -0.5894714070E+00      0.1513409234E+01
          0                 3           2             7   13     1      -0.9369391894E-03       7   13    1        -0.5230588403E-01      0.1376307059E+00
          0                 4           1             5    6     1      -0.7275959035E-04       5    8    1        -0.4126035117E-02      0.1081001970E-01

    ------------------------------------------------
       NWT REQUIRED            4 OUTER ITERATIONS 
       AND A TOTAL OF          7 INNER ITERATIONS.
    ------------------------------------------------

 OUTPUT CONTROL FOR STRESS PERIOD    8   TIME STEP   15
    PRINT BUDGET
    SAVE BUDGET
 UBDSV1 SAVING "         STORAGE" ON UNIT 102 AT TIME STEP 15, STRESS PERIOD   8
 UBDSV2 SAVING "   CONSTANT HEAD" ON UNIT 102 AT TIME STEP 15, STRESS PERIOD   8
 UBDSV1 SAVING "FLOW RIGHT FACE " ON UNIT 102 AT TIME STEP 15, STRESS PERIOD   8
 UBDSV1 SAVING "FLOW FRONT FACE " ON UNIT 102 AT TIME STEP 15, STRESS PERIOD   8

  HEAD DEP BOUNDS   PERIOD    8   STEP    15
 BOUNDARY      1   LAYER   1   ROW    13   COL     1   RATE   -0.287342    
 BOUNDARY      2   LAYER   1   ROW    14   COL     9   RATE    0.287959    



 STREAM LISTING     PERIOD      8   STEP       15

 LAYER ROW COL. STREAM  RCH.  FLOW INTO     FLOW TO   FLOW OUT OF   OVRLND.     DIRECT     STREAM       STREAM     STREAM     STREAM   STREAMBED  STREAMBED
                SEG.NO.  NO.  STRM. RCH.    AQUIFER    STRM. RCH.    RUNOFF     PRECIP       ET          HEAD       DEPTH      WIDTH   CONDCTNC.   GRADIENT

   1    1    1     1     1    2.8125E+01  2.5915E-01   2.7866E+01  0.000E+00  0.000E+00  0.000E+00  1.09427E+03  1.223E+00  1.364E+01  6.137E-02  1.408E+00
   1    2    2     1     2    2.7866E+01  4.0087E-01   2.7465E+01  0.000E+00  0.000E+00  0.000E+00  1.08928E+03  1.218E+00  1.358E+01  9.503E-02  1.406E+00
   1    3    3     1     3    2.7465E+01  3.4142E-01   2.7123E+01  0.000E+00  0.000E+00  0.000E+00  1.08363E+03  1.213E+00  1.351E+01  8.103E-02  1.404E+00
   1    3    4     1     4    2.7123E+01  3.1403E-01   2.6809E+01  0.000E+00  0.000E+00  0.000E+00  1.07862E+03  1.209E+00  1.344E+01  7.461E-02  1.403E+00
   1    4    5     2     1    2.4809E+01  3.2739E-01   2.4482E+01  0.000E+00  0.000E+00  0.000E+00  1.07313E+03  1.197E+00  1.200E+01  7.800E-02  1.399E+00
   1    5    6     2     2    2.4482E+01  2.5133E-01   2.4231E+01  0.000E+00  0.000E+00  0.000E+00  1.06770E+03  1.189E+00  1.200E+01  6.000E-02  1.396E+00
   1    6    6     2     3    2.4231E+01  2.5089E-01   2.3980E+01  0.000E+00  0.000E+00  0.000E+00  1.06297E+03  1.181E+00  1.200E+01  6.000E-02  1.394E+00
   1    7    6     2     4    2.3980E+01  2.5044E-01   2.3729E+01  0.000E+00  0.000E+00  0.000E+00  1.05825E+03  1.174E+00  1.200E+01  6.000E-02  1.391E+00
   1    8    6     2     5    2.3729E+01  2.5000E-01   2.3479E+01  0.000E+00  0.000E+00  0.000E+00  1.05353E+03  1.167E+00  1.200E+01  6.000E-02  1.389E+00
   1    3    5     3     1    2.0000E+00  2.8252E-01   1.7175E+00  0.000E+00  0.000E+00  0.000E+00  1.07555E+03  1.909E+00  9.636E+00  7.227E-02  1.955E+00
   1    3    6     3     2    1.7175E+00  2.4905E-01   1.4684E+00  0.000E+00  0.000E+00  0.000E+00  1.07264E+03  1.727E+00  8.909E+00  6.682E-02  1.864E+00
   1    3    7     3     3    1.4684E+00  1.9718E-01   1.2712E+00  0.000E+00  0.000E+00  0.000E+00  1.06987E+03  1.555E+00  8.218E+00  5.547E-02  1.777E+00
   1    4    8     3     4    1.2712E+00  2.2567E-01   1.0456E+00  0.000E+00  0.000E+00  0.000E+00  1.06682E+03  1.364E+00  7.455E+00  6.709E-02  1.682E+00
   1    5    8     3     5    1.0456E+00  1.5790E-01   8.8768E-01  0.000E+00  0.000E+00  0.000E+00  1.06362E+03  1.164E+00  6.655E+00  4.991E-02  1.582E+00
   1    6    8     3     6    8.8768E-01  5.5980E-02   8.3170E-01  0.000E+00  0.000E+00  0.000E+00  1.06158E+03  1.036E+00  6.145E+00  1.844E-02  1.518E+00
   1    5   10     4     1    1.0000E+01  9.0919E-02   9.9091E+00  0.000E+00  0.000E+00  0.000E+00  1.07836E+03  6.368E-01  1.000E+01  2.500E-02  1.212E+00
   1    5    9     4     2    9.9091E+00  1.8158E-01   9.7275E+00  0.000E+00  0.000E+00  0.000E+00  1.07154E+03  6.315E-01  1.000E+01  5.000E-02  1.211E+00
   1    6    8     4     3    9.7275E+00  1.2689E-01   9.6006E+00  0.000E+00  0.000E+00  0.000E+00  1.06381E+03  6.256E-01  1.000E+01  3.500E-02  1.209E+00
   1    6    8     5     1    1.0432E+01  2.2686E-01   1.0205E+01  0.000E+00  0.000E+00  0.000E+00  1.05868E+03  6.790E-01  1.542E+01  6.166E-02  1.226E+00
   1    7    7     5     2    1.0205E+01  2.7894E-01   9.9265E+00  0.000E+00  0.000E+00  0.000E+00  1.05417E+03  6.732E-01  1.519E+01  7.594E-02  1.224E+00
   1    8    7     5     3    9.9265E+00  1.9221E-01   9.7343E+00  0.000E+00  0.000E+00  0.000E+00  1.04992E+03  6.676E-01  1.497E+01  5.241E-02  1.223E+00
   1    8    6     5     4    9.7343E+00  1.3577E-01   9.5985E+00  0.000E+00  0.000E+00  0.000E+00  1.04691E+03  6.637E-01  1.482E+01  3.706E-02  1.221E+00
   1    9    6     6     1    9.5985E+00  2.2097E-01   9.3776E+00  0.000E+00  0.000E+00  0.000E+00  1.04341E+03  6.828E-01  1.200E+01  6.000E-02  1.228E+00
   1   10    7     6     2    9.3776E+00  2.2039E-01   9.1572E+00  0.000E+00  0.000E+00  0.000E+00  1.03885E+03  6.732E-01  1.200E+01  6.000E-02  1.224E+00
   1   11    7     6     3    9.1572E+00  2.1981E-01   8.9374E+00  0.000E+00  0.000E+00  0.000E+00  1.03430E+03  6.636E-01  1.200E+01  6.000E-02  1.221E+00
   1   12    7     6     4    8.9374E+00  2.1923E-01   8.7181E+00  0.000E+00  0.000E+00  0.000E+00  1.02974E+03  6.539E-01  1.200E+01  6.000E-02  1.218E+00
   1   13    7     6     5    8.7181E+00 -6.8512E-02   8.7866E+00  0.000E+00  0.000E+00  0.000E+00  1.02656E+03  6.505E-01  1.200E+01  2.400E-01 -9.516E-02
   1   14    9     7     1    1.5000E+02  1.3681E+00   1.4863E+02  0.000E+00  0.000E+00  0.000E+00  1.03987E+03  2.288E+00  5.529E+01  5.593E-01  8.154E-01
   1   13    8     7     2    1.4863E+02  1.9154E+00   1.4672E+02  0.000E+00  0.000E+00  0.000E+00  1.03478E+03  2.279E+00  5.526E+01  6.148E-01  1.039E+00
   1   13    7     7     3    1.4672E+02  1.5880E+00   1.4513E+02  0.000E+00  0.000E+00  0.000E+00  1.02969E+03  2.270E+00  5.521E+01  5.584E-01  9.479E-01
   1   13    6     8     1    1.5392E+02  9.3747E-01   1.5298E+02  0.000E+00  0.000E+00  0.000E+00  1.02472E+03  2.841E+00  4.119E+01  4.198E-01  7.444E-01
   1   13    5     8     2    1.5298E+02  1.9924E-01   1.5278E+02  0.000E+00  0.000E+00  0.000E+00  1.01846E+03  2.837E+00  4.114E+01  4.192E-01  1.584E-01
   1   13    4     8     3    1.5278E+02 -2.3545E+00   1.5513E+02  0.000E+00  0.000E+00  0.000E+00  1.01222E+03  2.844E+00  4.124E+01  4.203E+00 -1.867E-01
   1   13    3     8     4    1.5513E+02 -3.6133E+00   1.5875E+02  0.000E+00  0.000E+00  0.000E+00  1.00599E+03  2.865E+00  4.154E+01  4.233E+00 -2.845E-01
   1   13    2     8     5    1.5875E+02 -2.6028E+00   1.6135E+02  0.000E+00  0.000E+00  0.000E+00  9.99761E+02  2.886E+00  4.185E+01  4.265E+00 -2.034E-01
   1   13    1     8     6    1.6135E+02 -2.0192E+00   1.6337E+02  0.000E+00  0.000E+00  0.000E+00  9.94777E+02  2.902E+00  4.208E+01  2.573E+00 -2.616E-01
   1    8    6     9     1    2.3479E+01  0.0000E+00   2.3479E+01  0.000E+00  0.000E+00  0.000E+00  1.08253E+03  3.782E+00  4.000E+00  0.000E+00  2.261E+00
   1    8    5     9     2    2.3479E+01  0.0000E+00   2.3479E+01  0.000E+00  0.000E+00  0.000E+00  1.08203E+03  3.782E+00  4.000E+00  0.000E+00  2.261E+00



 UBDSV3 SAVING "           GW ET" ON UNIT  61 AT TIME STEP 15, STRESS PERIOD   8
 UBDSV3 SAVING "    UZF RECHARGE" ON UNIT  61 AT TIME STEP 15, STRESS PERIOD   8
 UBDSV3 SAVING " SURFACE LEAKAGE" ON UNIT  61 AT TIME STEP 15, STRESS PERIOD   8
 UBDSV3 SAVING "       HORT+DUNN" ON UNIT  61 AT TIME STEP 15, STRESS PERIOD   8
 UBDSV3 SAVING "  STORAGE CHANGE" ON UNIT  61 AT TIME STEP 15, STRESS PERIOD   8


UNSATURATED ZONE PACKAGE VOLUMETRIC BUDGET FOR  TIME STEP    15 STRESS PERIOD    8
  ------------------------------------------------------------------------------



     CUMULATIVE VOLUMES      L**3       RATES FOR THIS TIME STEP      L**3/T
     ------------------                 ------------------------

           IN:                                      IN:
           ---                                      ---
        INFILTRATION =   239858250.4817          INFILTRATION =          64.1981

          OUT:                                     OUT:
          ----                                     ----
              UZF ET =   220218861.0703                UZF ET =          64.0903
        UZF RECHARGE =       73224.0000          UZF RECHARGE =       0.0000E+00

            IN - OUT =    19566165.4114              IN - OUT =           0.1078

          STORAGE:                                 STORAGE:
          --------                                 --------
      STORAGE CHANGE =    19566163.6248        STORAGE CHANGE =           0.1078

 PERCENT DISCREPANCY IS DIFFERENCE BETWEEN IN-OUT MINUS CHANGE IN STORAGE
 DIVIDED BY THE AVERAGE OF IN AND OUT TIMES 100

 PERCENT DISCREPANCY =           0.00     PERCENT DISCREPANCY =           0.00






 

            AG WELLS      PERIOD    8   STEP  15
 AG WELL      1   LAYER   1   ROW     6   COL     4   RATE    -6.05180    
 AG WELL      2   LAYER   1   ROW     6   COL     5   RATE    -6.05180    
 AG WELL      3   LAYER   1   ROW     7   COL     4   RATE    -6.05180    
 AG WELL      4   LAYER   1   ROW     7   COL     5   RATE    -6.05180    
 AG WELL      5   LAYER   1   ROW     8   COL     4   RATE    -6.05180    
 AG WELL      6   LAYER   1   ROW     8   COL     5   RATE    -6.05180    
 
 

   DIVERSION SEGMENTS     PERIOD    8   STEP  15
 SEGMENT      9   RATE     23.4793    
 
 

        SW IRRIGATION     PERIOD    8   STEP  15
 SEGMENT      9   ROW     6   COL     4   RATE     3.91329    
 SEGMENT      9   ROW     6   COL     5   RATE     3.91329    
 SEGMENT      9   ROW     7   COL     4   RATE     3.91329    
 SEGMENT      9   ROW     7   COL     5   RATE     3.91329    
 SEGMENT      9   ROW     8   COL     4   RATE     3.91329    
 SEGMENT      9   ROW     8   COL     5   RATE     3.91329    
 
 

        GW IRRIGATION     PERIOD    8   STEP  15
 AG WELL      1   ROW     6   COL     4   RATE     6.05180    
 AG WELL      2   ROW     6   COL     5   RATE     6.05180    
 AG WELL      3   ROW     7   COL     4   RATE     6.05180    
 AG WELL      4   ROW     7   COL     5   RATE     6.05180    
 AG WELL      5   ROW     8   COL     4   RATE     6.05180    
 AG WELL      6   ROW     8   COL     5   RATE     6.05180    
 
1
  VOLUMETRIC BUDGET FOR AGRICULTURAL FIELDS AT  END OF TIME STEP   15, STRESS PERIOD   8
  ------------------------------------------------------------------------------

     CUMULATIVE VOLUMES      L**3       RATES FOR THIS TIME STEP      L**3/T
     ------------------                 ------------------------

           IN:                                      IN:
           ---                                      ---
               AG WELLS  =    47750260.0000                 AG WELLS  =          36.3108
      DIVERSION SEGMENTS =   116686224.0000        DIVERSION SEGMENTS =          23.4793
           GW IRRIGATION =           0.0000             GW IRRIGATION =           0.0000
           SW IRRIGATION =           0.0000             SW IRRIGATION =           0.0000
        SYSTEM LOSSES GW =           0.0000          SYSTEM LOSSES GW =           0.0000
        SYSTEM LOSSES SW =           0.0000          SYSTEM LOSSES SW =           0.0000

                TOTAL IN =   164436480.0000                  TOTAL IN =          59.7901

          OUT:                                     OUT:
          ----                                     ----
               AG WELLS  =           0.0000                 AG WELLS  =           0.0000
      DIVERSION SEGMENTS =           0.0000        DIVERSION SEGMENTS =           0.0000
           GW IRRIGATION =    47750260.0000             GW IRRIGATION =          36.3108
           SW IRRIGATION =   116688536.0000             SW IRRIGATION =          23.4797
        SYSTEM LOSSES GW =           0.0000          SYSTEM LOSSES GW =           0.0000
        SYSTEM LOSSES SW =           0.0000          SYSTEM LOSSES SW =           0.0000

               TOTAL OUT =   164438800.0000                 TOTAL OUT =          59.7906

                IN - OUT =       -2320.0000                  IN - OUT =      -4.6921E-04

     PERCENT DISCREPANCY =          -0.00         PERCENT DISCREPANCY =          -0.00



1
  VOLUMETRIC BUDGET FOR ENTIRE MODEL AT END OF TIME STEP   15, STRESS PERIOD   8
  ------------------------------------------------------------------------------

     CUMULATIVE VOLUMES      L**3       RATES FOR THIS TIME STEP      L**3/T
     ------------------                 ------------------------

           IN:                                      IN:
           ---                                      ---
             STORAGE     =    58531716.0000               STORAGE     =          36.0514
       CONSTANT HEAD     =           0.0000         CONSTANT HEAD     =           0.0000
     HEAD DEP BOUNDS     =     4946128.0000       HEAD DEP BOUNDS     =           0.2880
      STREAM LEAKAGE     =   203716080.0000        STREAM LEAKAGE     =          11.9357
        UZF RECHARGE     =       73223.9531          UZF RECHARGE     =           0.0000
               GW ET     =           0.0000                 GW ET     =           0.0000
     SURFACE LEAKAGE     =           0.0000       SURFACE LEAKAGE     =           0.0000
           AG WELLS      =           0.0000             AG WELLS      =           0.0000

                TOTAL IN =   267267136.0000                  TOTAL IN =          48.2750

          OUT:                                     OUT:
          ----                                     ----
             STORAGE     =    37241508.0000               STORAGE     =           1.0176
       CONSTANT HEAD     =           0.0000         CONSTANT HEAD     =           0.0000
     HEAD DEP BOUNDS     =     4956766.0000       HEAD DEP BOUNDS     =           0.2873
      STREAM LEAKAGE     =   177310640.0000        STREAM LEAKAGE     =          10.6584
        UZF RECHARGE     =           0.0000          UZF RECHARGE     =           0.0000
               GW ET     =           0.0000                 GW ET     =           0.0000
     SURFACE LEAKAGE     =           0.0000       SURFACE LEAKAGE     =           0.0000
           AG WELLS      =    47750260.0000             AG WELLS      =          36.3108

               TOTAL OUT =   267259168.0000                 TOTAL OUT =          48.2742

                IN - OUT =        7968.0000                  IN - OUT =       8.8882E-04

     PERCENT DISCREPANCY =           0.00         PERCENT DISCREPANCY =           0.00






         TIME SUMMARY AT END OF TIME STEP   15 IN STRESS PERIOD    8
                    SECONDS     MINUTES      HOURS       DAYS        YEARS
                    -----------------------------------------------------------
   TIME STEP LENGTH  87667.      1461.1      24.352      1.0147     2.77799E-03
 STRESS PERIOD TIME 1.31500E+06  21917.      365.28      15.220     4.16698E-02
         TOTAL TIME 1.71814E+07 2.86357E+05  4772.6      198.86     0.54445    
1
 
 SOLVING FOR HEAD 
                                                   Max.-Head-Change                         Max.-Flux-Residual
  Residual-Control   Outer-Iter.   Inner-Iter.     Column Row Layer    Maximum-Head-Change  Column Row Layer    Maximum-Flux-Residual          L2-NORM 
          0                 1           2             4    7     1      -0.1019267499E+00       4    7    1        -0.5345969509E+01      0.1163331203E+02
          0                 2           2             4   13     1      -0.1003627839E-01       4   13    1        -0.5898719551E+00      0.1502962009E+01
          0                 3           2             7   13     1      -0.9343946115E-03       7   13    1        -0.5216418191E-01      0.1367786148E+00
          0                 4           1             5    6     1      -0.7327954913E-04       5    8    1        -0.4156586750E-02      0.1086745040E-01

    ------------------------------------------------
       NWT REQUIRED            4 OUTER ITERATIONS 
       AND A TOTAL OF          7 INNER ITERATIONS.
    ------------------------------------------------

 NO OUTPUT CONTROL FOR STRESS PERIOD    8   TIME STEP   16
 
 SOLVING FOR HEAD 
                                                   Max.-Head-Change                         Max.-Flux-Residual
  Residual-Control   Outer-Iter.   Inner-Iter.     Column Row Layer    Maximum-Head-Change  Column Row Layer    Maximum-Flux-Residual          L2-NORM 
          0                 1           2             4    7     1      -0.1009540812E+00       4    7    1        -0.5295760945E+01      0.1149001063E+02
          0                 2           2             4   13     1      -0.1004255721E-01       4   13    1        -0.5902398072E+00      0.1492931849E+01
          0                 3           2             7   13     1      -0.9319252100E-03       7   13    1        -0.5202667544E-01      0.1359572489E+00
          0                 4           1             5    6     1      -0.7378066037E-04       5    8    1        -0.4185924742E-02      0.1092343627E-01

    ------------------------------------------------
       NWT REQUIRED            4 OUTER ITERATIONS 
       AND A TOTAL OF          7 INNER ITERATIONS.
    ------------------------------------------------

 NO OUTPUT CONTROL FOR STRESS PERIOD    8   TIME STEP   17
 
 SOLVING FOR HEAD 
                                                   Max.-Head-Change                         Max.-Flux-Residual
  Residual-Control   Outer-Iter.   Inner-Iter.     Column Row Layer    Maximum-Head-Change  Column Row Layer    Maximum-Flux-Residual          L2-NORM 
          0                 1           2             4    7     1      -0.9997658885E-01       4    7    1        -0.5245215823E+01      0.1135174696E+02
          0                 2           2             4   13     1      -0.1004833253E-01       4   13    1        -0.5905779769E+00      0.1483309993E+01
          0                 3           2             7   13     1      -0.9295091475E-03       7   13    1        -0.5189213481E-01      0.1351622054E+00
          0                 4           1             5    6     1      -0.7427384073E-04       5    8    1        -0.4214677072E-02      0.1097935387E-01

    ------------------------------------------------
       NWT REQUIRED            4 OUTER ITERATIONS 
       AND A TOTAL OF          7 INNER ITERATIONS.
    ------------------------------------------------

 NO OUTPUT CONTROL FOR STRESS PERIOD    8   TIME STEP   18
 
 SOLVING FOR HEAD 
                                                   Max.-Head-Change                         Max.-Flux-Residual
  Residual-Control   Outer-Iter.   Inner-Iter.     Column Row Layer    Maximum-Head-Change  Column Row Layer    Maximum-Flux-Residual          L2-NORM 
          0                 1           2             4    7     1      -0.9899596083E-01       4    7    1        -0.5194428959E+01      0.1121822495E+02
          0                 2           2             4   13     1      -0.1005363666E-01       4   13    1        -0.5908884176E+00      0.1474068863E+01
          0                 3           2             7   13     1      -0.9271626897E-03       7   13    1        -0.5176147314E-01      0.1343959193E+00
          0                 4           1             5    6     1      -0.7472525744E-04       5    8    1        -0.4240948331E-02      0.1102998278E-01

    ------------------------------------------------
       NWT REQUIRED            4 OUTER ITERATIONS 
       AND A TOTAL OF          7 INNER ITERATIONS.
    ------------------------------------------------

 NO OUTPUT CONTROL FOR STRESS PERIOD    8   TIME STEP   19
 
 SOLVING FOR HEAD 
                                                   Max.-Head-Change                         Max.-Flux-Residual
  Residual-Control   Outer-Iter.   Inner-Iter.     Column Row Layer    Maximum-Head-Change  Column Row Layer    Maximum-Flux-Residual          L2-NORM 
          0                 1           2             4    7     1      -0.9801342416E-01       4    7    1        -0.5143469362E+01      0.1108916777E+02
          0                 2           2             4   13     1      -0.1005851077E-01       4   13    1        -0.5911735932E+00      0.1465181438E+01
          0                 3           2             7   13     1      -0.9248764007E-03       7   13    1        -0.5163416257E-01      0.1336548052E+00
          0                 4           1             5    6     1      -0.7518692469E-04       5    8    1        -0.4267688534E-02      0.1108344952E-01

    ------------------------------------------------
       NWT REQUIRED            4 OUTER ITERATIONS 
       AND A TOTAL OF          7 INNER ITERATIONS.
    ------------------------------------------------

 NO OUTPUT CONTROL FOR STRESS PERIOD    8   TIME STEP   20
 
 SOLVING FOR HEAD 
                                                   Max.-Head-Change                         Max.-Flux-Residual
  Residual-Control   Outer-Iter.   Inner-Iter.     Column Row Layer    Maximum-Head-Change  Column Row Layer    Maximum-Flux-Residual          L2-NORM 
          0                 1           2             4    7     1      -0.9703034675E-01       4    7    1        -0.5092413702E+01      0.1096435934E+02
          0                 2           2             4   13     1      -0.1006300750E-01       4   13    1        -0.5914366095E+00      0.1456633135E+01
          0                 3           2             7   13     1      -0.9226439516E-03       7   13    1        -0.5150984853E-01      0.1329402011E+00
          0                 4           1             5    6     1      -0.7561701504E-04       5    8    1        -0.4292547860E-02      0.1113327850E-01

    ------------------------------------------------
       NWT REQUIRED            4 OUTER ITERATIONS 
       AND A TOTAL OF          7 INNER ITERATIONS.
    ------------------------------------------------

 NO OUTPUT CONTROL FOR STRESS PERIOD    8   TIME STEP   21
 
 SOLVING FOR HEAD 
                                                   Max.-Head-Change                         Max.-Flux-Residual
  Residual-Control   Outer-Iter.   Inner-Iter.     Column Row Layer    Maximum-Head-Change  Column Row Layer    Maximum-Flux-Residual          L2-NORM 
          0                 1           2             4    7     1      -0.9604805078E-01       4    7    1        -0.5041336456E+01      0.1084355537E+02
          0                 2           2             4   13     1      -0.1006711844E-01       4   13    1        -0.5916769566E+00      0.1448401624E+01
          0                 3           2             7   13     1      -0.9204828654E-03       7   13    1        -0.5138951482E-01      0.1322466097E+00
          0                 4           1             5    6     1      -0.7605958576E-04       5    8    1        -0.4318024217E-02      0.1118610404E-01

    ------------------------------------------------
       NWT REQUIRED            4 OUTER ITERATIONS 
       AND A TOTAL OF          7 INNER ITERATIONS.
    ------------------------------------------------

 NO OUTPUT CONTROL FOR STRESS PERIOD    8   TIME STEP   22
 
 SOLVING FOR HEAD 
                                                   Max.-Head-Change                         Max.-Flux-Residual
  Residual-Control   Outer-Iter.   Inner-Iter.     Column Row Layer    Maximum-Head-Change  Column Row Layer    Maximum-Flux-Residual          L2-NORM 
          0                 1           2             4    7     1      -0.9506749397E-01       4    7    1        -0.4990291961E+01      0.1072655160E+02
          0                 2           2             4   13     1      -0.1007099408E-01       4   13    1        -0.5919035662E+00      0.1440469915E+01
          0                 3           2             7   13     1      -0.9183681912E-03       7   13    1        -0.5127176283E-01      0.1315773680E+00
          0                 4           1             5    6     1      -0.7645502906E-04       5    8    1        -0.4340756333E-02      0.1123326574E-01

    ------------------------------------------------
       NWT REQUIRED            4 OUTER ITERATIONS 
       AND A TOTAL OF          7 INNER ITERATIONS.
    ------------------------------------------------

 NO OUTPUT CONTROL FOR STRESS PERIOD    8   TIME STEP   23
 
 SOLVING FOR HEAD 
                                                   Max.-Head-Change                         Max.-Flux-Residual
  Residual-Control   Outer-Iter.   Inner-Iter.     Column Row Layer    Maximum-Head-Change  Column Row Layer    Maximum-Flux-Residual          L2-NORM 
          0                 1           2             4    7     1      -0.9408984049E-01       4    7    1        -0.4939345517E+01      0.1061315239E+02
          0                 2           2             4   13     1      -0.1007451432E-01       4   13    1        -0.5921092737E+00      0.1432821790E+01
          0                 3           2             7   13     1      -0.9163057621E-03       7   13    1        -0.5115692153E-01      0.1309271109E+00
          0                 4           1             5    6     1      -0.7686405991E-04       5    8    1        -0.4364188429E-02      0.1128204066E-01

    ------------------------------------------------
       NWT REQUIRED            4 OUTER ITERATIONS 
       AND A TOTAL OF          7 INNER ITERATIONS.
    ------------------------------------------------

 NO OUTPUT CONTROL FOR STRESS PERIOD    8   TIME STEP   24
 
 SOLVING FOR HEAD 
                                                   Max.-Head-Change                         Max.-Flux-Residual
  Residual-Control   Outer-Iter.   Inner-Iter.     Column Row Layer    Maximum-Head-Change  Column Row Layer    Maximum-Flux-Residual          L2-NORM 
          0                 1           2             4    7     1      -0.9311586238E-01       4    7    1        -0.4888541364E+01      0.1050318372E+02
          0                 2           2             4   13     1      -0.1007776406E-01       4   13    1        -0.5922991389E+00      0.1425439896E+01
          0                 3           2             7   13     1      -0.9142965683E-03       7   13    1        -0.5104504531E-01      0.1302987982E+00
          0                 4           1             5    6     1      -0.7725258376E-04       5    8    1        -0.4386401579E-02      0.1132931499E-01

    ------------------------------------------------
       NWT REQUIRED            4 OUTER ITERATIONS 
       AND A TOTAL OF          7 INNER ITERATIONS.
    ------------------------------------------------

 NO OUTPUT CONTROL FOR STRESS PERIOD    8   TIME STEP   25
 
 SOLVING FOR HEAD 
                                                   Max.-Head-Change                         Max.-Flux-Residual
  Residual-Control   Outer-Iter.   Inner-Iter.     Column Row Layer    Maximum-Head-Change  Column Row Layer    Maximum-Flux-Residual          L2-NORM 
          0                 1           2             4    7     1      -0.9214657964E-01       4    7    1        -0.4837937074E+01      0.1039647370E+02
          0                 2           2             4   13     1      -0.1008078388E-01       4   13    1        -0.5924755275E+00      0.1418312818E+01
          0                 3           2             7   13     1      -0.9123350044E-03       7   13    1        -0.5093581886E-01      0.1296870004E+00
          0                 4           1             5    6     1      -0.7763141315E-04       5    8    1        -0.4408006587E-02      0.1137610016E-01

    ------------------------------------------------
       NWT REQUIRED            4 OUTER ITERATIONS 
       AND A TOTAL OF          7 INNER ITERATIONS.
    ------------------------------------------------

 NO OUTPUT CONTROL FOR STRESS PERIOD    8   TIME STEP   26
 
 SOLVING FOR HEAD 
                                                   Max.-Head-Change                         Max.-Flux-Residual
  Residual-Control   Outer-Iter.   Inner-Iter.     Column Row Layer    Maximum-Head-Change  Column Row Layer    Maximum-Flux-Residual          L2-NORM 
          0                 1           2             4    7     1      -0.9118258796E-01       4    7    1        -0.4787567055E+01      0.1029286935E+02
          0                 2           2             4   13     1      -0.1008358217E-01       4   13    1        -0.5926389616E+00      0.1411427258E+01
          0                 3           2             7   13     1      -0.9104229143E-03       7   13    1        -0.5082934600E-01      0.1290950628E+00
          0                 4           1             5    6     1      -0.7801655124E-04       5    8    1        -0.4429921282E-02      0.1142354983E-01

    ------------------------------------------------
       NWT REQUIRED            4 OUTER ITERATIONS 
       AND A TOTAL OF          7 INNER ITERATIONS.
    ------------------------------------------------

 NO OUTPUT CONTROL FOR STRESS PERIOD    8   TIME STEP   27
 
 SOLVING FOR HEAD 
                                                   Max.-Head-Change                         Max.-Flux-Residual
  Residual-Control   Outer-Iter.   Inner-Iter.     Column Row Layer    Maximum-Head-Change  Column Row Layer    Maximum-Flux-Residual          L2-NORM 
          0                 1           2             4    7     1      -0.9022474325E-01       4    7    1        -0.4737479709E+01      0.1019222168E+02
          0                 2           2             4   13     1      -0.1008616627E-01       4   13    1        -0.5927898641E+00      0.1404769073E+01
          0                 3           2             7   13     1      -0.9085571171E-03       7   13    1        -0.5072546441E-01      0.1285203385E+00
          0                 4           1             5    6     1      -0.7836638598E-04       5    8    1        -0.4449797227E-02      0.1146742637E-01

    ------------------------------------------------
       NWT REQUIRED            4 OUTER ITERATIONS 
       AND A TOTAL OF          7 INNER ITERATIONS.
    ------------------------------------------------

 NO OUTPUT CONTROL FOR STRESS PERIOD    8   TIME STEP   28
 
 SOLVING FOR HEAD 
                                                   Max.-Head-Change                         Max.-Flux-Residual
  Residual-Control   Outer-Iter.   Inner-Iter.     Column Row Layer    Maximum-Head-Change  Column Row Layer    Maximum-Flux-Residual          L2-NORM 
          0                 1           2             4    7     1      -0.8927355309E-01       4    7    1        -0.4687704282E+01      0.1009440722E+02
          0                 2           2             4   13     1      -0.1008858140E-01       4   13    1        -0.5929308837E+00      0.1398333358E+01
          0                 3           2             7   13     1      -0.9067349287E-03       7   13    1        -0.5062399774E-01      0.1279642597E+00
          0                 4           1             5    6     1      -0.7871507686E-04       5    8    1        -0.4469570015E-02      0.1151126528E-01

    ------------------------------------------------
       NWT REQUIRED            4 OUTER ITERATIONS 
       AND A TOTAL OF          7 INNER ITERATIONS.
    ------------------------------------------------

 NO OUTPUT CONTROL FOR STRESS PERIOD    8   TIME STEP   29
 
 SOLVING FOR HEAD 
                                                   Max.-Head-Change                         Max.-Flux-Residual
  Residual-Control   Outer-Iter.   Inner-Iter.     Column Row Layer    Maximum-Head-Change  Column Row Layer    Maximum-Flux-Residual          L2-NORM 
          0                 1           2             4    7     1      -0.8832969542E-01       4    7    1        -0.4638279852E+01      0.9999282203E+01
          0                 2           2             4   13     1      -0.1009080648E-01       4   13    1        -0.5930607893E+00      0.1392101138E+01
          0                 3           2             7   13     1      -0.9049491254E-03       7   13    1        -0.5052456469E-01      0.1274203063E+00
          0                 4           1             5    6     1      -0.7907307395E-04       5    8    1        -0.4489836942E-02      0.1155667082E-01

    ------------------------------------------------
       NWT REQUIRED            4 OUTER ITERATIONS 
       AND A TOTAL OF          7 INNER ITERATIONS.
    ------------------------------------------------

 NO OUTPUT CONTROL FOR STRESS PERIOD    8   TIME STEP   30



 STREAM LISTING     PERIOD      8   STEP       30

 LAYER ROW COL. STREAM  RCH.  FLOW INTO     FLOW TO   FLOW OUT OF   OVRLND.     DIRECT     STREAM       STREAM     STREAM     STREAM   STREAMBED  STREAMBED
                SEG.NO.  NO.  STRM. RCH.    AQUIFER    STRM. RCH.    RUNOFF     PRECIP       ET          HEAD       DEPTH      WIDTH   CONDCTNC.   GRADIENT

   1    1    1     1     1    2.8125E+01  2.5915E-01   2.7866E+01  0.000E+00  0.000E+00  0.000E+00  1.09427E+03  1.223E+00  1.364E+01  6.137E-02  1.408E+00
   1    2    2     1     2    2.7866E+01  4.0087E-01   2.7465E+01  0.000E+00  0.000E+00  0.000E+00  1.08928E+03  1.218E+00  1.358E+01  9.503E-02  1.406E+00
   1    3    3     1     3    2.7465E+01  3.4142E-01   2.7123E+01  0.000E+00  0.000E+00  0.000E+00  1.08363E+03  1.213E+00  1.351E+01  8.103E-02  1.404E+00
   1    3    4     1     4    2.7123E+01  3.1403E-01   2.6809E+01  0.000E+00  0.000E+00  0.000E+00  1.07862E+03  1.209E+00  1.344E+01  7.461E-02  1.403E+00
   1    4    5     2     1    2.4809E+01  3.2739E-01   2.4482E+01  0.000E+00  0.000E+00  0.000E+00  1.07313E+03  1.197E+00  1.200E+01  7.800E-02  1.399E+00
   1    5    6     2     2    2.4482E+01  2.5133E-01   2.4231E+01  0.000E+00  0.000E+00  0.000E+00  1.06770E+03  1.189E+00  1.200E+01  6.000E-02  1.396E+00
   1    6    6     2     3    2.4231E+01  2.5089E-01   2.3980E+01  0.000E+00  0.000E+00  0.000E+00  1.06297E+03  1.181E+00  1.200E+01  6.000E-02  1.394E+00
   1    7    6     2     4    2.3980E+01  2.5044E-01   2.3729E+01  0.000E+00  0.000E+00  0.000E+00  1.05825E+03  1.174E+00  1.200E+01  6.000E-02  1.391E+00
   1    8    6     2     5    2.3729E+01  2.5000E-01   2.3479E+01  0.000E+00  0.000E+00  0.000E+00  1.05353E+03  1.167E+00  1.200E+01  6.000E-02  1.389E+00
   1    3    5     3     1    2.0000E+00  2.8252E-01   1.7175E+00  0.000E+00  0.000E+00  0.000E+00  1.07555E+03  1.909E+00  9.636E+00  7.227E-02  1.955E+00
   1    3    6     3     2    1.7175E+00  2.4905E-01   1.4684E+00  0.000E+00  0.000E+00  0.000E+00  1.07264E+03  1.727E+00  8.909E+00  6.682E-02  1.864E+00
   1    3    7     3     3    1.4684E+00  1.9718E-01   1.2712E+00  0.000E+00  0.000E+00  0.000E+00  1.06987E+03  1.555E+00  8.218E+00  5.547E-02  1.777E+00
   1    4    8     3     4    1.2712E+00  2.2567E-01   1.0456E+00  0.000E+00  0.000E+00  0.000E+00  1.06682E+03  1.364E+00  7.455E+00  6.709E-02  1.682E+00
   1    5    8     3     5    1.0456E+00  1.5790E-01   8.8768E-01  0.000E+00  0.000E+00  0.000E+00  1.06362E+03  1.164E+00  6.655E+00  4.991E-02  1.582E+00
   1    6    8     3     6    8.8768E-01  5.5980E-02   8.3170E-01  0.000E+00  0.000E+00  0.000E+00  1.06158E+03  1.036E+00  6.145E+00  1.844E-02  1.518E+00
   1    5   10     4     1    1.0000E+01  9.0919E-02   9.9091E+00  0.000E+00  0.000E+00  0.000E+00  1.07836E+03  6.368E-01  1.000E+01  2.500E-02  1.212E+00
   1    5    9     4     2    9.9091E+00  1.8158E-01   9.7275E+00  0.000E+00  0.000E+00  0.000E+00  1.07154E+03  6.315E-01  1.000E+01  5.000E-02  1.211E+00
   1    6    8     4     3    9.7275E+00  1.2689E-01   9.6006E+00  0.000E+00  0.000E+00  0.000E+00  1.06381E+03  6.256E-01  1.000E+01  3.500E-02  1.209E+00
   1    6    8     5     1    1.0432E+01  2.2686E-01   1.0205E+01  0.000E+00  0.000E+00  0.000E+00  1.05868E+03  6.790E-01  1.542E+01  6.166E-02  1.226E+00
   1    7    7     5     2    1.0205E+01  2.7894E-01   9.9265E+00  0.000E+00  0.000E+00  0.000E+00  1.05417E+03  6.732E-01  1.519E+01  7.594E-02  1.224E+00
   1    8    7     5     3    9.9265E+00  1.9221E-01   9.7343E+00  0.000E+00  0.000E+00  0.000E+00  1.04992E+03  6.676E-01  1.497E+01  5.241E-02  1.223E+00
   1    8    6     5     4    9.7343E+00  1.3577E-01   9.5985E+00  0.000E+00  0.000E+00  0.000E+00  1.04691E+03  6.637E-01  1.482E+01  3.706E-02  1.221E+00
   1    9    6     6     1    9.5985E+00  2.2097E-01   9.3776E+00  0.000E+00  0.000E+00  0.000E+00  1.04341E+03  6.828E-01  1.200E+01  6.000E-02  1.228E+00
   1   10    7     6     2    9.3776E+00  2.2039E-01   9.1572E+00  0.000E+00  0.000E+00  0.000E+00  1.03885E+03  6.732E-01  1.200E+01  6.000E-02  1.224E+00
   1   11    7     6     3    9.1572E+00  2.1981E-01   8.9374E+00  0.000E+00  0.000E+00  0.000E+00  1.03430E+03  6.636E-01  1.200E+01  6.000E-02  1.221E+00
   1   12    7     6     4    8.9374E+00  2.1923E-01   8.7181E+00  0.000E+00  0.000E+00  0.000E+00  1.02974E+03  6.539E-01  1.200E+01  6.000E-02  1.218E+00
   1   13    7     6     5    8.7181E+00 -6.6750E-02   8.7849E+00  0.000E+00  0.000E+00  0.000E+00  1.02656E+03  6.505E-01  1.200E+01  2.400E-01 -9.271E-02
   1   14    9     7     1    1.5000E+02  1.3682E+00   1.4863E+02  0.000E+00  0.000E+00  0.000E+00  1.03987E+03  2.288E+00  5.529E+01  5.593E-01  8.155E-01
   1   13    8     7     2    1.4863E+02  1.9163E+00   1.4672E+02  0.000E+00  0.000E+00  0.000E+00  1.03478E+03  2.279E+00  5.526E+01  6.148E-01  1.039E+00
   1   13    7     7     3    1.4672E+02  1.5921E+00   1.4512E+02  0.000E+00  0.000E+00  0.000E+00  1.02969E+03  2.270E+00  5.521E+01  5.584E-01  9.504E-01
   1   13    6     8     1    1.5391E+02  9.4086E-01   1.5297E+02  0.000E+00  0.000E+00  0.000E+00  1.02472E+03  2.841E+00  4.119E+01  4.198E-01  7.471E-01
   1   13    5     8     2    1.5297E+02  2.0270E-01   1.5276E+02  0.000E+00  0.000E+00  0.000E+00  1.01846E+03  2.837E+00  4.114E+01  4.192E-01  1.612E-01
   1   13    4     8     3    1.5276E+02 -2.3317E+00   1.5510E+02  0.000E+00  0.000E+00  0.000E+00  1.01222E+03  2.844E+00  4.124E+01  4.203E+00 -1.849E-01
   1   13    3     8     4    1.5510E+02 -3.5901E+00   1.5869E+02  0.000E+00  0.000E+00  0.000E+00  1.00599E+03  2.865E+00  4.154E+01  4.233E+00 -2.827E-01
   1   13    2     8     5    1.5869E+02 -2.5749E+00   1.6126E+02  0.000E+00  0.000E+00  0.000E+00  9.99761E+02  2.886E+00  4.184E+01  4.264E+00 -2.013E-01
   1   13    1     8     6    1.6126E+02 -1.9947E+00   1.6326E+02  0.000E+00  0.000E+00  0.000E+00  9.94776E+02  2.901E+00  4.207E+01  2.572E+00 -2.585E-01
   1    8    6     9     1    2.3479E+01  0.0000E+00   2.3479E+01  0.000E+00  0.000E+00  0.000E+00  1.08253E+03  3.782E+00  4.000E+00  0.000E+00  2.261E+00
   1    8    5     9     2    2.3479E+01  0.0000E+00   2.3479E+01  0.000E+00  0.000E+00  0.000E+00  1.08203E+03  3.782E+00  4.000E+00  0.000E+00  2.261E+00





UNSATURATED ZONE PACKAGE VOLUMETRIC BUDGET FOR  TIME STEP    30 STRESS PERIOD    8
  ------------------------------------------------------------------------------



     CUMULATIVE VOLUMES      L**3       RATES FOR THIS TIME STEP      L**3/T
     ------------------                 ------------------------

           IN:                                      IN:
           ---                                      ---
        INFILTRATION =   324278321.5217          INFILTRATION =          64.1975

          OUT:                                     OUT:
          ----                                     ----
              UZF ET =   304497388.6104                UZF ET =          64.0900
        UZF RECHARGE =       73224.0000          UZF RECHARGE =       0.0000E+00

            IN - OUT =    19707708.9114              IN - OUT =           0.1075

          STORAGE:                                 STORAGE:
          --------                                 --------
      STORAGE CHANGE =    19707706.0166        STORAGE CHANGE =           0.1075

 PERCENT DISCREPANCY IS DIFFERENCE BETWEEN IN-OUT MINUS CHANGE IN STORAGE
 DIVIDED BY THE AVERAGE OF IN AND OUT TIMES 100

 PERCENT DISCREPANCY =           0.00     PERCENT DISCREPANCY =           0.00






1
  VOLUMETRIC BUDGET FOR AGRICULTURAL FIELDS AT  END OF TIME STEP   30, STRESS PERIOD   8
  ------------------------------------------------------------------------------

     CUMULATIVE VOLUMES      L**3       RATES FOR THIS TIME STEP      L**3/T
     ------------------                 ------------------------

           IN:                                      IN:
           ---                                      ---
               AG WELLS  =    95498600.0000                 AG WELLS  =          36.3103
      DIVERSION SEGMENTS =   147561504.0000        DIVERSION SEGMENTS =          23.4793
           GW IRRIGATION =           0.0000             GW IRRIGATION =           0.0000
           SW IRRIGATION =           0.0000             SW IRRIGATION =           0.0000
        SYSTEM LOSSES GW =           0.0000          SYSTEM LOSSES GW =           0.0000
        SYSTEM LOSSES SW =           0.0000          SYSTEM LOSSES SW =           0.0000

                TOTAL IN =   243060096.0000                  TOTAL IN =          59.7895

          OUT:                                     OUT:
          ----                                     ----
               AG WELLS  =           0.0000                 AG WELLS  =           0.0000
      DIVERSION SEGMENTS =           0.0000        DIVERSION SEGMENTS =           0.0000
           GW IRRIGATION =    95498600.0000             GW IRRIGATION =          36.3103
           SW IRRIGATION =   147564368.0000             SW IRRIGATION =          23.4797
        SYSTEM LOSSES GW =           0.0000          SYSTEM LOSSES GW =           0.0000
        SYSTEM LOSSES SW =           0.0000          SYSTEM LOSSES SW =           0.0000

               TOTAL OUT =   243062976.0000                 TOTAL OUT =          59.7900

                IN - OUT =       -2880.0000                  IN - OUT =      -4.6921E-04

     PERCENT DISCREPANCY =          -0.00         PERCENT DISCREPANCY =          -0.00



1
  VOLUMETRIC BUDGET FOR ENTIRE MODEL AT END OF TIME STEP   30, STRESS PERIOD   8
  ------------------------------------------------------------------------------

     CUMULATIVE VOLUMES      L**3       RATES FOR THIS TIME STEP      L**3/T
     ------------------                 ------------------------

           IN:                                      IN:
           ---                                      ---
             STORAGE     =   105707096.0000               STORAGE     =          35.7441
       CONSTANT HEAD     =           0.0000         CONSTANT HEAD     =           0.0000
     HEAD DEP BOUNDS     =     5324799.0000       HEAD DEP BOUNDS     =           0.2880
      STREAM LEAKAGE     =   219420224.0000        STREAM LEAKAGE     =          11.9476
        UZF RECHARGE     =       73223.9531          UZF RECHARGE     =           0.0000
               GW ET     =           0.0000                 GW ET     =           0.0000
     SURFACE LEAKAGE     =           0.0000       SURFACE LEAKAGE     =           0.0000
           AG WELLS      =           0.0000             AG WELLS      =           0.0000

                TOTAL IN =   330525344.0000                  TOTAL IN =          47.9797

          OUT:                                     OUT:
          ----                                     ----
             STORAGE     =    38436920.0000               STORAGE     =           0.8232
       CONSTANT HEAD     =           0.0000         CONSTANT HEAD     =           0.0000
     HEAD DEP BOUNDS     =     5334325.5000       HEAD DEP BOUNDS     =           0.2870
      STREAM LEAKAGE     =   191246336.0000        STREAM LEAKAGE     =          10.5583
        UZF RECHARGE     =           0.0000          UZF RECHARGE     =           0.0000
               GW ET     =           0.0000                 GW ET     =           0.0000
     SURFACE LEAKAGE     =           0.0000       SURFACE LEAKAGE     =           0.0000
           AG WELLS      =    95498600.0000             AG WELLS      =          36.3103

               TOTAL OUT =   330516192.0000                 TOTAL OUT =          47.9787

                IN - OUT =        9152.0000                  IN - OUT =       9.5749E-04

     PERCENT DISCREPANCY =           0.00         PERCENT DISCREPANCY =           0.00






         TIME SUMMARY AT END OF TIME STEP   30 IN STRESS PERIOD    8
                    SECONDS     MINUTES      HOURS       DAYS        YEARS
                    -----------------------------------------------------------
   TIME STEP LENGTH  87667.      1461.1      24.352      1.0147     2.77799E-03
 STRESS PERIOD TIME 2.63000E+06  43833.      730.56      30.440     8.33397E-02
         TOTAL TIME 1.84964E+07 3.08274E+05  5137.9      214.08     0.58612    
1
1
                            STRESS PERIOD NO.    9, LENGTH =   2630000.    
                            -----------------------------------------------

                              NUMBER OF TIME STEPS =    30

                               MULTIPLIER FOR DELT =     1.000

                            INITIAL TIME STEP SIZE =   87666.66    

 REUSING NON-PARAMETER GHB CELLS FROM LAST STRESS PERIOD

      2 GHB CELLS

 REUSING STREAM SEGMENT DATA FROM LAST STRESS PERIOD



            AREAL INFILTRATION RATE
 READING ON UNIT   19 WITH FORMAT: (10F4.0)            

            1           2           3           4           5           6           7           8           9          10
 ........................................................................................................................
   1   1.2000E-09   0.000       0.000       0.000       0.000       0.000       0.000       0.000       0.000       0.000    
   2   2.1000E-09  2.0000E-09  8.0000E-10  8.5000E-09   0.000       0.000       0.000       0.000       0.000       0.000    
   3   5.0000E-10  1.1000E-09  8.8000E-09  5.5000E-09   0.000       0.000       0.000       0.000       0.000       0.000    
   4   8.5000E-09  1.1000E-09  1.1000E-09  1.1000E-09  2.0000E-09   0.000       0.000       0.000       0.000       0.000    
   5   8.5000E-09  1.1000E-09  1.1000E-09  1.1000E-09  1.1000E-09   0.000       0.000       0.000       0.000       0.000    
   6   8.5000E-09  5.2000E-09  2.1000E-09  1.1000E-09  1.5000E-09   0.000       0.000       0.000       0.000       0.000    
   7   8.5000E-09  5.2000E-09  2.1000E-09  1.2000E-09  2.0000E-09   0.000       0.000       0.000       0.000       0.000    
   8   5.0000E-10  5.2000E-09  2.1000E-09  1.2000E-09  5.0000E-09   0.000       0.000       0.000       0.000       0.000    
   9   5.0000E-10  5.2000E-09  2.1000E-09  1.2000E-09  5.0000E-09   0.000       0.000       0.000       0.000       0.000    
  10   5.0000E-10  5.2000E-09  2.1000E-09  1.2000E-09  5.8000E-09   0.000       0.000       0.000       0.000       0.000    
  11   1.0000E-10  1.1000E-09  1.1000E-09  1.2000E-09  5.0000E-09   0.000       0.000       0.000       0.000       0.000    
  12   1.1000E-09  1.1000E-09  1.1000E-09  1.1000E-09  2.0000E-09   0.000       0.000       0.000       0.000       0.000    
  13   1.1000E-09  2.2000E-09  2.2000E-09  2.1000E-09  1.0000E-09   0.000       0.000       0.000       0.000       0.000    
  14   2.0000E-10  5.5000E-09  5.5000E-09  5.2000E-09  1.0000E-09   0.000       0.000       0.000       0.000       0.000    
  15    0.000      8.8000E-09  8.8000E-09   0.000       0.000       0.000       0.000       0.000       0.000       0.000    

                  ET RATE =  3.250000E-07

 USING ET EXTINCTION DEPTH FROM PREVIOUS STRESS PERIOD. CURRENT PERIOD IS:       9

 USING EXTINCTION WATER CONTENT FROM PREVIOUS STRESS PERIOD. CURRENT PERIOD IS:       9

 USING AIR ENTRY PRESSURE FROM PREVIOUS STRESS PERIOD. CURRENT PERIOD IS:       9

 USING ROOT PRESSURE HEAD FROM PREVIOUS STRESS PERIOD. CURRENT PERIOD IS:       9

 USING ROOT ACTIVITY FROM PREVIOUS STRESS PERIOD. CURRENT PERIOD IS:       9

 PROCESSING AG STRESS PERIOD DATA

 READING AG STRESS PERIOD DATA

 READING IRRIGATION SEGMENT

 READING IRRIGATION WELL

 READING SUPPLEMENTAL WELL

 END PROCESSING AG STRESS PERIOD DATA OPTIONS
 
 SOLVING FOR HEAD 
                                                   Max.-Head-Change                         Max.-Flux-Residual
  Residual-Control   Outer-Iter.   Inner-Iter.     Column Row Layer    Maximum-Head-Change  Column Row Layer    Maximum-Flux-Residual          L2-NORM 
          0                 1           2             4    7     1      -0.6702575737E-01       4    7    1        -0.3525836518E+01      0.7524257380E+01
          0                 2           2             4   13     1      -0.7969927201E-02       4   13    1        -0.4684258815E+00      0.1068387664E+01
          0                 3           2             7   13     1      -0.9475043686E-03       7   13    1        -0.5287154544E-01      0.1077282502E+00
          0                 4           1             5    6     1      -0.8483142441E-04       5    8    1        -0.4815298350E-02      0.1223222357E-01

    ------------------------------------------------
       NWT REQUIRED            4 OUTER ITERATIONS 
       AND A TOTAL OF          7 INNER ITERATIONS.
    ------------------------------------------------

 NO OUTPUT CONTROL FOR STRESS PERIOD    9   TIME STEP    1
 
 SOLVING FOR HEAD 
                                                   Max.-Head-Change                         Max.-Flux-Residual
  Residual-Control   Outer-Iter.   Inner-Iter.     Column Row Layer    Maximum-Head-Change  Column Row Layer    Maximum-Flux-Residual          L2-NORM 
          0                 1           2             4    7     1      -0.6684710484E-01       4    7    1        -0.3515814187E+01      0.7538640226E+01
          0                 2           2             4   13     1      -0.7881488303E-02       4   13    1        -0.4632279945E+00      0.1061763894E+01
          0                 3           2             7   13     1      -0.9477610990E-03       7   13    1        -0.5288486939E-01      0.1078932076E+00
          0                 4           1             5    6     1      -0.8704138433E-04       5    8    1        -0.4939430790E-02      0.1252154922E-01

    ------------------------------------------------
       NWT REQUIRED            4 OUTER ITERATIONS 
       AND A TOTAL OF          7 INNER ITERATIONS.
    ------------------------------------------------

 NO OUTPUT CONTROL FOR STRESS PERIOD    9   TIME STEP    2
 
 SOLVING FOR HEAD 
                                                   Max.-Head-Change                         Max.-Flux-Residual
  Residual-Control   Outer-Iter.   Inner-Iter.     Column Row Layer    Maximum-Head-Change  Column Row Layer    Maximum-Flux-Residual          L2-NORM 
          0                 1           2             4    7     1      -0.6601917275E-01       4    7    1        -0.3471922931E+01      0.7479496876E+01
          0                 2           2             4   13     1      -0.7883161470E-02       4   13    1        -0.4633257194E+00      0.1057276787E+01
          0                 3           2             7   13     1      -0.9461021093E-03       7   13    1        -0.5279249506E-01      0.1079395454E+00
          0                 4           1             5    6     1      -0.8948782927E-04       5    8    1        -0.5077011519E-02      0.1284409650E-01

    ------------------------------------------------
       NWT REQUIRED            4 OUTER ITERATIONS 
       AND A TOTAL OF          7 INNER ITERATIONS.
    ------------------------------------------------

 NO OUTPUT CONTROL FOR STRESS PERIOD    9   TIME STEP    3
 
 SOLVING FOR HEAD 
                                                   Max.-Head-Change                         Max.-Flux-Residual
  Residual-Control   Outer-Iter.   Inner-Iter.     Column Row Layer    Maximum-Head-Change  Column Row Layer    Maximum-Flux-Residual          L2-NORM 
          0                 1           2             4    7     1      -0.5461607621E-01       4    7    1        -0.2875925123E+01      0.6268923421E+01
          0                 2           2             4   13     1      -0.7884704530E-02       4   13    1        -0.4634158394E+00      0.9368306067E+00
          0                 3           2             4    7     1      -0.2310795864E-02       4    7    1        -0.1209041958E+00      0.2888830096E+00
          0                 4           2             5    7     1      -0.9873004714E-03       5    8    1        -0.5269069089E-01      0.1279086769E+00
          0                 5           2             4    7     1      -0.5097558652E-03       4    7    1        -0.2661664514E-01      0.6501002123E-01
          0                 6           2             4    7     1      -0.2531793585E-03       5    8    1        -0.1322988096E-01      0.3239493367E-01
          0                 7           2             4    7     1      -0.1267504037E-03       4    7    1        -0.6617516514E-02      0.1620731012E-01
          0                 8           1             4    7     1      -0.6336826312E-04       4    8    1        -0.3308386739E-02      0.8103837977E-02

    ------------------------------------------------
       NWT REQUIRED            8 OUTER ITERATIONS 
       AND A TOTAL OF         15 INNER ITERATIONS.
    ------------------------------------------------

 NO OUTPUT CONTROL FOR STRESS PERIOD    9   TIME STEP    4
 
 SOLVING FOR HEAD 
                                                   Max.-Head-Change                         Max.-Flux-Residual
  Residual-Control   Outer-Iter.   Inner-Iter.     Column Row Layer    Maximum-Head-Change  Column Row Layer    Maximum-Flux-Residual          L2-NORM 
          0                 1           2             4    7     1      -0.5343754766E-01       4    7    1        -0.2813758446E+01      0.6175940173E+01
          0                 2           2             4   13     1      -0.7886099286E-02       4   13    1        -0.4634973002E+00      0.9540750794E+00
          0                 3           2             4    7     1      -0.2346203662E-02       4    7    1        -0.1227464244E+00      0.2935630026E+00
          0                 4           2             5    7     1      -0.1019747068E-02       5    8    1        -0.5438562450E-01      0.1320864971E+00
          0                 5           2             4    7     1      -0.5247258380E-03       4    7    1        -0.2739810227E-01      0.6692789690E-01
          0                 6           2             4    7     1      -0.2608252873E-03       5    8    1        -0.1362875768E-01      0.3337228901E-01
          0                 7           2             4    7     1      -0.1305618403E-03       4    7    1        -0.6816494326E-02      0.1669473061E-01
          0                 8           1             4    7     1      -0.6525230121E-04       4    8    1        -0.3406741115E-02      0.8344753898E-02

    ------------------------------------------------
       NWT REQUIRED            8 OUTER ITERATIONS 
       AND A TOTAL OF         15 INNER ITERATIONS.
    ------------------------------------------------

 NO OUTPUT CONTROL FOR STRESS PERIOD    9   TIME STEP    5
 
 SOLVING FOR HEAD 
                                                   Max.-Head-Change                         Max.-Flux-Residual
  Residual-Control   Outer-Iter.   Inner-Iter.     Column Row Layer    Maximum-Head-Change  Column Row Layer    Maximum-Flux-Residual          L2-NORM 
          0                 1           2             4    7     1      -0.5227451513E-01       4    7    1        -0.2752414431E+01      0.6084647212E+01
          0                 2           2             4   13     1      -0.7887412356E-02       4   13    1        -0.4635740154E+00      0.9730422252E+00
          0                 3           2             4    7     1      -0.2381505328E-02       4    7    1        -0.1245832347E+00      0.2982279685E+00
          0                 4           2             5    7     1      -0.1052133424E-02       5    8    1        -0.5607822598E-01      0.1362575312E+00
          0                 5           2             4    7     1      -0.5396381633E-03       4    7    1        -0.2817654867E-01      0.6883829744E-01
          0                 6           2             4    7     1      -0.2684313394E-03       5    8    1        -0.1402556073E-01      0.3434455203E-01
          0                 7           2             4    7     1      -0.1343498771E-03       4    7    1        -0.7014249936E-02      0.1717915642E-01
          0                 8           1             4    7     1      -0.6715695208E-04       4    8    1        -0.3506171433E-02      0.8588305395E-02

    ------------------------------------------------
       NWT REQUIRED            8 OUTER ITERATIONS 
       AND A TOTAL OF         15 INNER ITERATIONS.
    ------------------------------------------------

 NO OUTPUT CONTROL FOR STRESS PERIOD    9   TIME STEP    6
 
 SOLVING FOR HEAD 
                                                   Max.-Head-Change                         Max.-Flux-Residual
  Residual-Control   Outer-Iter.   Inner-Iter.     Column Row Layer    Maximum-Head-Change  Column Row Layer    Maximum-Flux-Residual          L2-NORM 
          0                 1           2             4    7     1      -0.5112711863E-01       4    7    1        -0.2691900160E+01      0.5995079700E+01
          0                 2           2             4   13     1      -0.7888619535E-02       4   13    1        -0.4636445638E+00      0.9936003950E+00
          0                 3           2             4    7     1      -0.2416655677E-02       4    7    1        -0.1264122660E+00      0.3028718401E+00
          0                 4           2             5    7     1      -0.1084382561E-02       5    8    1        -0.5776438900E-01      0.1404117326E+00
          0                 5           2             4    7     1      -0.5545097412E-03       4    7    1        -0.2895286678E-01      0.7074338832E-01
          0                 6           2             4    7     1      -0.2760140909E-03       5    8    1        -0.1442115505E-01      0.3531384220E-01
          0                 7           2             4    7     1      -0.1381311232E-03       4    7    1        -0.7211650488E-02      0.1766271153E-01
          0                 8           1             4    7     1      -0.6905315495E-04       4    7    1        -0.3605160771E-02      0.8830775968E-02

    ------------------------------------------------
       NWT REQUIRED            8 OUTER ITERATIONS 
       AND A TOTAL OF         15 INNER ITERATIONS.
    ------------------------------------------------

 NO OUTPUT CONTROL FOR STRESS PERIOD    9   TIME STEP    7
 
 SOLVING FOR HEAD 
                                                   Max.-Head-Change                         Max.-Flux-Residual
  Residual-Control   Outer-Iter.   Inner-Iter.     Column Row Layer    Maximum-Head-Change  Column Row Layer    Maximum-Flux-Residual          L2-NORM 
          0                 1           2             4    7     1      -0.4999526985E-01       4    7    1        -0.2632211974E+01      0.5907221641E+01
          0                 2           2             4   13     1      -0.7889791001E-02       4   13    1        -0.4637130953E+00      0.1015645115E+01
          0                 3           2             4    7     1      -0.2451682136E-02       4    7    1        -0.1282349601E+00      0.3074981504E+00
          0                 4           2             4    7     1      -0.1116853071E-02       5    8    1        -0.5944489814E-01      0.1445511494E+00
          0                 5           2             4    7     1      -0.5693207519E-03       4    7    1        -0.2972602197E-01      0.7264063317E-01
          0                 6           2             4    7     1      -0.2835663896E-03       5    8    1        -0.1481516701E-01      0.3627924514E-01
          0                 7           2             4    7     1      -0.1418971598E-03       4    7    1        -0.7408256463E-02      0.1814431952E-01
          0                 8           1             4    7     1      -0.7093261751E-04       4    7    1        -0.3703278464E-02      0.9071105350E-02

    ------------------------------------------------
       NWT REQUIRED            8 OUTER ITERATIONS 
       AND A TOTAL OF         15 INNER ITERATIONS.
    ------------------------------------------------

 NO OUTPUT CONTROL FOR STRESS PERIOD    9   TIME STEP    8
 
 SOLVING FOR HEAD 
                                                   Max.-Head-Change                         Max.-Flux-Residual
  Residual-Control   Outer-Iter.   Inner-Iter.     Column Row Layer    Maximum-Head-Change  Column Row Layer    Maximum-Flux-Residual          L2-NORM 
          0                 1           2             4    7     1      -0.4887829964E-01       4    7    1        -0.2573314085E+01      0.5821055391E+01
          0                 2           2             4   13     1      -0.7890849686E-02       4   13    1        -0.4637750416E+00      0.1039029657E+01
          0                 3           2             4    7     1      -0.2486545937E-02       4    7    1        -0.1300492901E+00      0.3121007495E+00
          0                 4           2             4    7     1      -0.1149363383E-02       5    8    1        -0.6111892759E-01      0.1486737794E+00
          0                 5           2             4    7     1      -0.5840726344E-03       4    7    1        -0.3049608933E-01      0.7453022255E-01
          0                 6           2             4    7     1      -0.2910880912E-03       5    8    1        -0.1520758837E-01      0.3724074168E-01
          0                 7           2             4    7     1      -0.1456571347E-03       4    7    1        -0.7604545467E-02      0.1862515002E-01
          0                 8           1             4    7     1      -0.7281269272E-04       4    7    1        -0.3801427856E-02      0.9311512316E-02

    ------------------------------------------------
       NWT REQUIRED            8 OUTER ITERATIONS 
       AND A TOTAL OF         15 INNER ITERATIONS.
    ------------------------------------------------

 NO OUTPUT CONTROL FOR STRESS PERIOD    9   TIME STEP    9
 
 SOLVING FOR HEAD 
                                                   Max.-Head-Change                         Max.-Flux-Residual
  Residual-Control   Outer-Iter.   Inner-Iter.     Column Row Layer    Maximum-Head-Change  Column Row Layer    Maximum-Flux-Residual          L2-NORM 
          0                 1           2             4    7     1      -0.4777612823E-01       4    7    1        -0.2515202572E+01      0.5736638834E+01
          0                 2           2             4   13     1      -0.7891838758E-02       4   13    1        -0.4638329608E+00      0.1063774452E+01
          0                 3           2             4    7     1      -0.2521287700E-02       4    7    1        -0.1318573630E+00      0.3166870090E+00
          0                 4           2             4    7     1      -0.1181748988E-02       5    8    1        -0.6278720020E-01      0.1527815192E+00
          0                 5           2             4    7     1      -0.5987730984E-03       4    7    1        -0.3126347142E-01      0.7641314825E-01
          0                 6           2             4    7     1      -0.2985966902E-03       5    6    1        -0.1559933270E-01      0.3820056893E-01
          0                 7           2             4    7     1      -0.1493818976E-03       4    7    1        -0.7798995652E-02      0.1910147554E-01
          0                 8           1             4    7     1      -0.7467802813E-04       4    7    1        -0.3898807477E-02      0.9550033904E-02

    ------------------------------------------------
       NWT REQUIRED            8 OUTER ITERATIONS 
       AND A TOTAL OF         15 INNER ITERATIONS.
    ------------------------------------------------

 NO OUTPUT CONTROL FOR STRESS PERIOD    9   TIME STEP   10
 
 SOLVING FOR HEAD 
                                                   Max.-Head-Change                         Max.-Flux-Residual
  Residual-Control   Outer-Iter.   Inner-Iter.     Column Row Layer    Maximum-Head-Change  Column Row Layer    Maximum-Flux-Residual          L2-NORM 
          0                 1           2             4    7     1      -0.4668840568E-01       4    7    1        -0.2457859434E+01      0.5653924024E+01
          0                 2           2             4   13     1      -0.7892749197E-02       4   13    1        -0.4638862968E+00      0.1089661046E+01
          0                 3           2             4    7     1      -0.2555877111E-02       4    7    1        -0.1336576162E+00      0.3212508919E+00
          0                 4           2             4    7     1      -0.1214040316E-02       5    8    1        -0.6445126602E-01      0.1568781328E+00
          0                 5           2             4    7     1      -0.6134191005E-03       4    7    1        -0.3202800954E-01      0.7828901648E-01
          0                 6           2             4    7     1      -0.3060650912E-03       5    6    1        -0.1598899528E-01      0.3915526199E-01
          0                 7           2             4    7     1      -0.1530924248E-03       4    7    1        -0.7992702120E-02      0.1957597855E-01
          0                 8           1             4    7     1      -0.7654479168E-04       4    7    1        -0.3996261434E-02      0.9788737777E-02

    ------------------------------------------------
       NWT REQUIRED            8 OUTER ITERATIONS 
       AND A TOTAL OF         15 INNER ITERATIONS.
    ------------------------------------------------

 NO OUTPUT CONTROL FOR STRESS PERIOD    9   TIME STEP   11
 
 SOLVING FOR HEAD 
                                                   Max.-Head-Change                         Max.-Flux-Residual
  Residual-Control   Outer-Iter.   Inner-Iter.     Column Row Layer    Maximum-Head-Change  Column Row Layer    Maximum-Flux-Residual          L2-NORM 
          0                 1           2             4    7     1      -0.4561462101E-01       4    7    1        -0.2401257466E+01      0.5572861843E+01
          0                 2           2             4   13     1      -0.7893659482E-02       4   13    1        -0.4639397279E+00      0.1116640076E+01
          0                 3           2             4    7     1      -0.2590326521E-02       4    7    1        -0.1354506837E+00      0.3257945410E+00
          0                 4           2             4    7     1      -0.1246208731E-02       5    8    1        -0.6610959471E-01      0.1609599629E+00
          0                 5           2             4    7     1      -0.6280043708E-03       4    7    1        -0.3278937626E-01      0.8015703234E-01
          0                 6           2             4    7     1      -0.3135030530E-03       5    6    1        -0.1637707372E-01      0.4010606841E-01
          0                 7           2             4    7     1      -0.1568060061E-03       4    7    1        -0.8186567626E-02      0.2005087028E-01
          0                 8           1             4    7     1      -0.7839298961E-04       4    7    1        -0.4092745857E-02      0.1002506679E-01

    ------------------------------------------------
       NWT REQUIRED            8 OUTER ITERATIONS 
       AND A TOTAL OF         15 INNER ITERATIONS.
    ------------------------------------------------

 NO OUTPUT CONTROL FOR STRESS PERIOD    9   TIME STEP   12
 
 SOLVING FOR HEAD 
                                                   Max.-Head-Change                         Max.-Flux-Residual
  Residual-Control   Outer-Iter.   Inner-Iter.     Column Row Layer    Maximum-Head-Change  Column Row Layer    Maximum-Flux-Residual          L2-NORM 
          0                 1           2             4    7     1      -0.4455467494E-01       4    7    1        -0.2345391602E+01      0.5493456508E+01
          0                 2           2             4   13     1      -0.7894485516E-02       4   13    1        -0.4639882440E+00      0.1144623869E+01
          0                 3           2             4    7     1      -0.2624632192E-02       4    7    1        -0.1372363720E+00      0.3303175722E+00
          0                 4           2             4    7     1      -0.1278254602E-02       5    8    1        -0.6776217049E-01      0.1650270241E+00
          0                 5           2             4    7     1      -0.6425288698E-03       4    7    1        -0.3354756964E-01      0.8201719296E-01
          0                 6           2             4    7     1      -0.3209197127E-03       5    6    1        -0.1676404514E-01      0.4105415664E-01
          0                 7           2             4    7     1      -0.1605034621E-03       4    7    1        -0.8379590795E-02      0.2052369795E-01
          0                 8           1             4    7     1      -0.8023367133E-04       4    7    1        -0.4188837658E-02      0.1026043428E-01

    ------------------------------------------------
       NWT REQUIRED            8 OUTER ITERATIONS 
       AND A TOTAL OF         15 INNER ITERATIONS.
    ------------------------------------------------

 NO OUTPUT CONTROL FOR STRESS PERIOD    9   TIME STEP   13
 
 SOLVING FOR HEAD 
                                                   Max.-Head-Change                         Max.-Flux-Residual
  Residual-Control   Outer-Iter.   Inner-Iter.     Column Row Layer    Maximum-Head-Change  Column Row Layer    Maximum-Flux-Residual          L2-NORM 
          0                 1           2             4    7     1      -0.4350798196E-01       4    7    1        -0.2290230739E+01      0.5415683821E+01
          0                 2           2             4   13     1      -0.7895271228E-02       4   13    1        -0.4640344460E+00      0.1173533800E+01
          0                 3           2             4    7     1      -0.2658800141E-02       4    7    1        -0.1390149901E+00      0.3348203360E+00
          0                 4           2             4    7     1      -0.1310177327E-02       5    8    1        -0.6940893207E-01      0.1690791492E+00
          0                 5           2             4    7     1      -0.6569926575E-03       4    7    1        -0.3430259277E-01      0.8386950884E-01
          0                 6           2             4    7     1      -0.3283150645E-03       5    6    1        -0.1714990875E-01      0.4199952541E-01
          0                 7           2             4    7     1      -0.1639199240E-03       4    7    1        -0.8557943337E-02      0.2096058942E-01
          0                 8           1             4    7     1      -0.8223032492E-04       4    7    1        -0.4293072257E-02      0.1051574801E-01

    ------------------------------------------------
       NWT REQUIRED            8 OUTER ITERATIONS 
       AND A TOTAL OF         15 INNER ITERATIONS.
    ------------------------------------------------

 NO OUTPUT CONTROL FOR STRESS PERIOD    9   TIME STEP   14
 
 SOLVING FOR HEAD 
                                                   Max.-Head-Change                         Max.-Flux-Residual
  Residual-Control   Outer-Iter.   Inner-Iter.     Column Row Layer    Maximum-Head-Change  Column Row Layer    Maximum-Flux-Residual          L2-NORM 
          0                 1           2             4    7     1      -0.4247448125E-01       4    7    1        -0.2235771935E+01      0.5339575676E+01
          0                 2           2             4   13     1      -0.7901114203E-02       4   13    1        -0.4643810817E+00      0.1203406406E+01
          0                 3           2             4    7     1      -0.2692801443E-02       4    7    1        -0.1407850307E+00      0.3393122325E+00
          0                 4           2             4    7     1      -0.1341970663E-02       5    8    1        -0.7104952244E-01      0.1731157851E+00
          0                 5           2             4    7     1      -0.6714328915E-03       4    7    1        -0.3505638568E-01      0.8571873307E-01
          0                 6           2             4    7     1      -0.3356579910E-03       5    6    1        -0.1753303995E-01      0.4293819544E-01
          0                 7           2             4    7     1      -0.1678439748E-03       4    7    1        -0.8762795746E-02      0.2146239102E-01
          0                 8           1             4    7     1      -0.8392962375E-04       4    7    1        -0.4381782228E-02      0.1073303345E-01

    ------------------------------------------------
       NWT REQUIRED            8 OUTER ITERATIONS 
       AND A TOTAL OF         15 INNER ITERATIONS.
    ------------------------------------------------

 NO OUTPUT CONTROL FOR STRESS PERIOD    9   TIME STEP   15
 
 SOLVING FOR HEAD 
                                                   Max.-Head-Change                         Max.-Flux-Residual
  Residual-Control   Outer-Iter.   Inner-Iter.     Column Row Layer    Maximum-Head-Change  Column Row Layer    Maximum-Flux-Residual          L2-NORM 
          0                 1           2             4    7     1      -0.4145364621E-01       4    7    1        -0.2181987091E+01      0.5265055064E+01
          0                 2           2             4   13     1      -0.7896676249E-02       4   13    1        -0.4641172144E+00      0.1233836738E+01
          0                 3           2             4    7     1      -0.2726669189E-02       4    7    1        -0.1425482155E+00      0.3437694878E+00
          0                 4           2             4    7     1      -0.1373676966E-02       5    8    1        -0.7268612688E-01      0.1771418556E+00
          0                 5           2             4    7     1      -0.6857905332E-03       4    7    1        -0.3580586605E-01      0.8755731983E-01
          0                 6           2             4    7     1      -0.3430091969E-03       5    6    1        -0.1791660760E-01      0.4387792942E-01
          0                 7           2             4    7     1      -0.1714932054E-03       4    7    1        -0.8953299890E-02      0.2192904613E-01
          0                 8           1             4    7     1      -0.8575687638E-04       4    7    1        -0.4477172268E-02      0.1096668222E-01

    ------------------------------------------------
       NWT REQUIRED            8 OUTER ITERATIONS 
       AND A TOTAL OF         15 INNER ITERATIONS.
    ------------------------------------------------

 NO OUTPUT CONTROL FOR STRESS PERIOD    9   TIME STEP   16
 
 SOLVING FOR HEAD 
                                                   Max.-Head-Change                         Max.-Flux-Residual
  Residual-Control   Outer-Iter.   Inner-Iter.     Column Row Layer    Maximum-Head-Change  Column Row Layer    Maximum-Flux-Residual          L2-NORM 
          0                 1           2             4    7     1      -0.4044543420E-01       4    7    1        -0.2128874309E+01      0.5192183903E+01
          0                 2           2             4   13     1      -0.7897333105E-02       4   13    1        -0.4641559938E+00      0.1265101639E+01
          0                 3           2             4    7     1      -0.2760409343E-02       4    7    1        -0.1443048597E+00      0.3482100482E+00
          0                 4           2             4    7     1      -0.1405249969E-02       5    8    1        -0.7431632611E-01      0.1811516945E+00
          0                 5           2             4    7     1      -0.7001158763E-03       4    7    1        -0.3655365970E-01      0.8939169950E-01
          0                 6           2             4    7     1      -0.3503179836E-03       5    6    1        -0.1829796498E-01      0.4481224415E-01
          0                 7           2             4    7     1      -0.1751375544E-03       4    7    1        -0.9143548789E-02      0.2239507528E-01
          0                 8           1             4    7     1      -0.8755722206E-04       4    7    1        -0.4571157332E-02      0.1119688958E-01

    ------------------------------------------------
       NWT REQUIRED            8 OUTER ITERATIONS 
       AND A TOTAL OF         15 INNER ITERATIONS.
    ------------------------------------------------

 NO OUTPUT CONTROL FOR STRESS PERIOD    9   TIME STEP   17
 
 SOLVING FOR HEAD 
                                                   Max.-Head-Change                         Max.-Flux-Residual
  Residual-Control   Outer-Iter.   Inner-Iter.     Column Row Layer    Maximum-Head-Change  Column Row Layer    Maximum-Flux-Residual          L2-NORM 
          0                 1           2             4    7     1      -0.3965236816E-01       4    7    1        -0.2087005971E+01      0.5139401106E+01
          0                 2           2             4   13     1      -0.7897938205E-02       4   13    1        -0.4641917914E+00      0.1282181990E+01
          0                 3           2             4    7     1      -0.2776843130E-02       4    7    1        -0.1451580970E+00      0.3504923022E+00
          0                 4           2             4    7     1      -0.1422159153E-02       5    8    1        -0.7518147849E-01      0.1832875641E+00
          0                 5           2             4    7     1      -0.7077880076E-03       4    7    1        -0.3695410476E-01      0.9037520713E-01
          0                 6           2             4    7     1      -0.3542185958E-03       5    6    1        -0.1850140050E-01      0.4531072885E-01
          0                 7           2             4    7     1      -0.1770768385E-03       4    7    1        -0.9244779920E-02      0.2264306070E-01
          0                 8           1             4    7     1      -0.8854166651E-04       4    7    1        -0.4622545959E-02      0.1132276003E-01

    ------------------------------------------------
       NWT REQUIRED            8 OUTER ITERATIONS 
       AND A TOTAL OF         15 INNER ITERATIONS.
    ------------------------------------------------

 NO OUTPUT CONTROL FOR STRESS PERIOD    9   TIME STEP   18
 
 SOLVING FOR HEAD 
                                                   Max.-Head-Change                         Max.-Flux-Residual
  Residual-Control   Outer-Iter.   Inner-Iter.     Column Row Layer    Maximum-Head-Change  Column Row Layer    Maximum-Flux-Residual          L2-NORM 
          0                 1           2             4    7     1      -0.3906653784E-01       4    7    1        -0.2055968937E+01      0.5105431076E+01
          0                 2           2             4   13     1      -0.7898507706E-02       4   13    1        -0.4642255406E+00      0.1285258991E+01
          0                 3           2             4    7     1      -0.2776177238E-02       4    7    1        -0.1451187207E+00      0.3506400211E+00
          0                 4           2             4    7     1      -0.1424465976E-02       5    8    1        -0.7528479028E-01      0.1835572618E+00
          0                 5           2             4    7     1      -0.7086637424E-03       4    7    1        -0.3699972742E-01      0.9048953587E-01
          0                 6           2             4    7     1      -0.3546887976E-03       5    6    1        -0.1852575437E-01      0.4537054241E-01
          0                 7           2             4    7     1      -0.1773041393E-03       4    7    1        -0.9256632507E-02      0.2267211865E-01
          0                 8           1             4    7     1      -0.8865609669E-04       4    7    1        -0.4628513221E-02      0.1133737387E-01

    ------------------------------------------------
       NWT REQUIRED            8 OUTER ITERATIONS 
       AND A TOTAL OF         15 INNER ITERATIONS.
    ------------------------------------------------

 NO OUTPUT CONTROL FOR STRESS PERIOD    9   TIME STEP   19
 
 SOLVING FOR HEAD 
                                                   Max.-Head-Change                         Max.-Flux-Residual
  Residual-Control   Outer-Iter.   Inner-Iter.     Column Row Layer    Maximum-Head-Change  Column Row Layer    Maximum-Flux-Residual          L2-NORM 
          0                 1           2             4    7     1      -0.3849184598E-01       4    7    1        -0.2025525331E+01      0.5072239405E+01
          0                 2           2             4   13     1      -0.7899060237E-02       4   13    1        -0.4642583372E+00      0.1288286452E+01
          0                 3           2             4    7     1      -0.2775617220E-02       4    7    1        -0.1450849878E+00      0.3507949307E+00
          0                 4           2             4    7     1      -0.1426753055E-02       5    8    1        -0.7538754822E-01      0.1838251222E+00
          0                 5           2             4    7     1      -0.7095505735E-03       4    7    1        -0.3704593097E-01      0.9060522116E-01
          0                 6           2             4    7     1      -0.3551670174E-03       5    6    1        -0.1855053142E-01      0.4543138838E-01
          0                 7           2             4    7     1      -0.1775397689E-03       4    7    1        -0.9268920071E-02      0.2270224138E-01
          0                 8           1             4    7     1      -0.8876055944E-04       4    7    1        -0.4633960159E-02      0.1135071330E-01

    ------------------------------------------------
       NWT REQUIRED            8 OUTER ITERATIONS 
       AND A TOTAL OF         15 INNER ITERATIONS.
    ------------------------------------------------

 NO OUTPUT CONTROL FOR STRESS PERIOD    9   TIME STEP   20
 
 SOLVING FOR HEAD 
                                                   Max.-Head-Change                         Max.-Flux-Residual
  Residual-Control   Outer-Iter.   Inner-Iter.     Column Row Layer    Maximum-Head-Change  Column Row Layer    Maximum-Flux-Residual          L2-NORM 
          0                 1           2             4    7     1      -0.3792818310E-01       4    7    1        -0.1995669408E+01      0.5039821695E+01
          0                 2           2             4   13     1      -0.7899587987E-02       4   13    1        -0.4642897358E+00      0.1291260914E+01
          0                 3           2             4    7     1      -0.2775154674E-02       4    7    1        -0.1450564596E+00      0.3509560097E+00
          0                 4           2             4    7     1      -0.1429021230E-02       5    8    1        -0.7548978280E-01      0.1840912080E+00
          0                 5           2             4    7     1      -0.7104301498E-03       4    7    1        -0.3709175731E-01      0.9071991714E-01
          0                 6           2             4    7     1      -0.3556276898E-03       5    6    1        -0.1857439697E-01      0.4548999734E-01
          0                 7           2             4    7     1      -0.1777680169E-03       4    7    1        -0.9280822384E-02      0.2273141976E-01
          0                 8           1             4    7     1      -0.8887489195E-04       4    7    1        -0.4639922452E-02      0.1136531534E-01

    ------------------------------------------------
       NWT REQUIRED            8 OUTER ITERATIONS 
       AND A TOTAL OF         15 INNER ITERATIONS.
    ------------------------------------------------

 NO OUTPUT CONTROL FOR STRESS PERIOD    9   TIME STEP   21
 
 SOLVING FOR HEAD 
                                                   Max.-Head-Change                         Max.-Flux-Residual
  Residual-Control   Outer-Iter.   Inner-Iter.     Column Row Layer    Maximum-Head-Change  Column Row Layer    Maximum-Flux-Residual          L2-NORM 
          0                 1           2             4    7     1      -0.3737523925E-01       4    7    1        -0.1966384388E+01      0.5008158486E+01
          0                 2           2             4   13     1      -0.7900059735E-02       4   13    1        -0.4643178847E+00      0.1294182637E+01
          0                 3           2             4    7     1      -0.2774778280E-02       4    7    1        -0.1450325391E+00      0.3511220926E+00
          0                 4           2             4    7     1      -0.1431280767E-02       5    8    1        -0.7559201060E-01      0.1843567862E+00
          0                 5           2             4    7     1      -0.7113197121E-03       4    7    1        -0.3713810649E-01      0.9083582888E-01
          0                 6           2             4    7     1      -0.3560782245E-03       5    6    1        -0.1859773754E-01      0.4554731653E-01
          0                 7           2             4    7     1      -0.1780064091E-03       4    7    1        -0.9293254451E-02      0.2276189520E-01
          0                 8           1             4    7     1      -0.8901560955E-04       4    7    1        -0.4647262293E-02      0.1138329119E-01

    ------------------------------------------------
       NWT REQUIRED            8 OUTER ITERATIONS 
       AND A TOTAL OF         15 INNER ITERATIONS.
    ------------------------------------------------

 NO OUTPUT CONTROL FOR STRESS PERIOD    9   TIME STEP   22
 
 SOLVING FOR HEAD 
                                                   Max.-Head-Change                         Max.-Flux-Residual
  Residual-Control   Outer-Iter.   Inner-Iter.     Column Row Layer    Maximum-Head-Change  Column Row Layer    Maximum-Flux-Residual          L2-NORM 
          0                 1           2             4    7     1      -0.3683260985E-01       4    7    1        -0.1937648775E+01      0.4977219454E+01
          0                 2           2             4   13     1      -0.7900513424E-02       4   13    1        -0.4643450010E+00      0.1297053725E+01
          0                 3           2             4    7     1      -0.2774483996E-02       4    7    1        -0.1450130114E+00      0.3512927159E+00
          0                 4           2             4    7     1      -0.1433522938E-02       5    8    1        -0.7569374233E-01      0.1846206923E+00
          0                 5           2             4    7     1      -0.7122018666E-03       4    7    1        -0.3718407037E-01      0.9095073759E-01
          0                 6           2             4    7     1      -0.3565568952E-03       5    6    1        -0.1862255115E-01      0.4560824008E-01
          0                 7           2             4    7     1      -0.1782328516E-03       4    7    1        -0.9305062772E-02      0.2279084214E-01
          0                 8           1             4    7     1      -0.8912098621E-04       4    7    1        -0.4652757145E-02      0.1139674815E-01

    ------------------------------------------------
       NWT REQUIRED            8 OUTER ITERATIONS 
       AND A TOTAL OF         15 INNER ITERATIONS.
    ------------------------------------------------

 NO OUTPUT CONTROL FOR STRESS PERIOD    9   TIME STEP   23
 
 SOLVING FOR HEAD 
                                                   Max.-Head-Change                         Max.-Flux-Residual
  Residual-Control   Outer-Iter.   Inner-Iter.     Column Row Layer    Maximum-Head-Change  Column Row Layer    Maximum-Flux-Residual          L2-NORM 
          0                 1           2             4    7     1      -0.3630028567E-01       4    7    1        -0.1909462124E+01      0.4946979800E+01
          0                 2           2             4   13     1      -0.7900947973E-02       4   13    1        -0.4643710544E+00      0.1299871383E+01
          0                 3           2             4    7     1      -0.2774310088E-02       4    7    1        -0.1449998754E+00      0.3514731802E+00
          0                 4           2             4    7     1      -0.1435753049E-02       5    8    1        -0.7579526069E-01      0.1848836886E+00
          0                 5           2             4    7     1      -0.7130760826E-03       4    7    1        -0.3722962125E-01      0.9106457529E-01
          0                 6           2             4    7     1      -0.3570272208E-03       5    6    1        -0.1864693320E-01      0.4566810287E-01
          0                 7           2             4    7     1      -0.1784601255E-03       4    7    1        -0.9316914627E-02      0.2281989515E-01
          0                 8           1             4    7     1      -0.8923541227E-04       4    7    1        -0.4658724486E-02      0.1141136255E-01

    ------------------------------------------------
       NWT REQUIRED            8 OUTER ITERATIONS 
       AND A TOTAL OF         15 INNER ITERATIONS.
    ------------------------------------------------

 NO OUTPUT CONTROL FOR STRESS PERIOD    9   TIME STEP   24
 
 SOLVING FOR HEAD 
                                                   Max.-Head-Change                         Max.-Flux-Residual
  Residual-Control   Outer-Iter.   Inner-Iter.     Column Row Layer    Maximum-Head-Change  Column Row Layer    Maximum-Flux-Residual          L2-NORM 
          0                 1           2             4    7     1      -0.3577772316E-01       4    7    1        -0.1881795172E+01      0.4917446150E+01
          0                 2           2             5    6     1      -0.7911868435E-02       4   13    1        -0.4643964215E+00      0.1302641063E+01
          0                 3           2             4    7     1      -0.2774201803E-02       4    7    1        -0.1449902631E+00      0.3516569864E+00
          0                 4           2             4    7     1      -0.1437949177E-02       5    8    1        -0.7589538238E-01      0.1851428614E+00
          0                 5           2             4    7     1      -0.7139810870E-03       4    7    1        -0.3727678085E-01      0.9118229799E-01
          0                 6           2             4    7     1      -0.3574853284E-03       5    6    1        -0.1867068116E-01      0.4572640906E-01
          0                 7           2             4    7     1      -0.1786977529E-03       4    7    1        -0.9329307130E-02      0.2285027186E-01
          0                 8           1             4    7     1      -0.8934880173E-04       4    7    1        -0.4664637768E-02      0.1142584449E-01

    ------------------------------------------------
       NWT REQUIRED            8 OUTER ITERATIONS 
       AND A TOTAL OF         15 INNER ITERATIONS.
    ------------------------------------------------

 NO OUTPUT CONTROL FOR STRESS PERIOD    9   TIME STEP   25
 
 SOLVING FOR HEAD 
                                                   Max.-Head-Change                         Max.-Flux-Residual
  Residual-Control   Outer-Iter.   Inner-Iter.     Column Row Layer    Maximum-Head-Change  Column Row Layer    Maximum-Flux-Residual          L2-NORM 
          0                 1           2             4    7     1      -0.3526492109E-01       4    7    1        -0.1854648500E+01      0.4888563477E+01
          0                 2           2             5    6     1      -0.7929578385E-02       4   13    1        -0.4644219232E+00      0.1305363825E+01
          0                 3           2             4    7     1      -0.2774197488E-02       4    7    1        -0.1449861834E+00      0.3518486556E+00
          0                 4           2             4    7     1      -0.1440144020E-02       5    8    1        -0.7599582939E-01      0.1854024366E+00
          0                 5           2             4    7     1      -0.7148496758E-03       4    7    1        -0.3732204069E-01      0.9129530953E-01
          0                 6           2             4    7     1      -0.3579470728E-03       5    6    1        -0.1869462290E-01      0.4578518644E-01
          0                 7           2             4    7     1      -0.1789167464E-03       4    7    1        -0.9340726940E-02      0.2287826569E-01
          0                 8           1             4    7     1      -0.8947318683E-04       4    7    1        -0.4671125158E-02      0.1144173311E-01

    ------------------------------------------------
       NWT REQUIRED            8 OUTER ITERATIONS 
       AND A TOTAL OF         15 INNER ITERATIONS.
    ------------------------------------------------

 NO OUTPUT CONTROL FOR STRESS PERIOD    9   TIME STEP   26
 
 SOLVING FOR HEAD 
                                                   Max.-Head-Change                         Max.-Flux-Residual
  Residual-Control   Outer-Iter.   Inner-Iter.     Column Row Layer    Maximum-Head-Change  Column Row Layer    Maximum-Flux-Residual          L2-NORM 
          0                 1           2             4    7     1      -0.3476152532E-01       4    7    1        -0.1828002505E+01      0.4860342940E+01
          0                 2           2             5    6     1      -0.7946968481E-02       4   13    1        -0.4644431997E+00      0.1308031892E+01
          0                 3           2             4    7     1      -0.2774250675E-02       4    7    1        -0.1449851994E+00      0.3520422393E+00
          0                 4           2             4    7     1      -0.1442351361E-02       5    8    1        -0.7609728319E-01      0.1856640763E+00
          0                 5           2             4    7     1      -0.7157352716E-03       4    7    1        -0.3736818969E-01      0.9141044678E-01
          0                 6           2             4    7     1      -0.3583979775E-03       5    6    1        -0.1871800221E-01      0.4584258319E-01
          0                 7           2             4    7     1      -0.1791550888E-03       4    7    1        -0.9353157015E-02      0.2290938783E-01
          0                 8           1             4    7     1      -0.8957736846E-04       4    7    1        -0.4676557838E-02      0.1145624184E-01

    ------------------------------------------------
       NWT REQUIRED            8 OUTER ITERATIONS 
       AND A TOTAL OF         15 INNER ITERATIONS.
    ------------------------------------------------

 NO OUTPUT CONTROL FOR STRESS PERIOD    9   TIME STEP   27
 
 SOLVING FOR HEAD 
                                                   Max.-Head-Change                         Max.-Flux-Residual
  Residual-Control   Outer-Iter.   Inner-Iter.     Column Row Layer    Maximum-Head-Change  Column Row Layer    Maximum-Flux-Residual          L2-NORM 
          0                 1           2             4    7     1      -0.3426724211E-01       4    7    1        -0.1801841848E+01      0.4832750402E+01
          0                 2           2             5    6     1      -0.7964135984E-02       4   13    1        -0.4644666973E+00      0.1310656973E+01
          0                 3           2             4    7     1      -0.2774408664E-02       4    7    1        -0.1449897801E+00      0.3522445127E+00
          0                 4           2             4    7     1      -0.1444529935E-02       5    8    1        -0.7619757584E-01      0.1859225618E+00
          0                 5           2             4    7     1      -0.7165963331E-03       4    7    1        -0.3741305914E-01      0.9152239870E-01
          0                 6           2             4    7     1      -0.3588695989E-03       5    6    1        -0.1874246664E-01      0.4590263469E-01
          0                 7           2             4    7     1      -0.1793730891E-03       4    7    1        -0.9364525210E-02      0.2293659947E-01
          0                 8           1             4    7     1      -0.8969271680E-04       4    7    1        -0.4682573562E-02      0.1146977118E-01

    ------------------------------------------------
       NWT REQUIRED            8 OUTER ITERATIONS 
       AND A TOTAL OF         15 INNER ITERATIONS.
    ------------------------------------------------

 NO OUTPUT CONTROL FOR STRESS PERIOD    9   TIME STEP   28
 
 SOLVING FOR HEAD 
                                                   Max.-Head-Change                         Max.-Flux-Residual
  Residual-Control   Outer-Iter.   Inner-Iter.     Column Row Layer    Maximum-Head-Change  Column Row Layer    Maximum-Flux-Residual          L2-NORM 
          0                 1           2             4    7     1      -0.3378199572E-01       4    7    1        -0.1776162405E+01      0.4805773706E+01
          0                 2           2             5    6     1      -0.7981049622E-02       4   13    1        -0.4644883023E+00      0.1313236372E+01
          0                 3           2             4    7     1      -0.2774597627E-02       4    7    1        -0.1449960699E+00      0.3524460915E+00
          0                 4           2             4    7     1      -0.1446696258E-02       5    8    1        -0.7629757208E-01      0.1861799868E+00
          0                 5           2             4    7     1      -0.7174768783E-03       4    7    1        -0.3745894699E-01      0.9163679462E-01
          0                 6           2             4    7     1      -0.3593301324E-03       5    6    1        -0.1876635562E-01      0.4596127355E-01
          0                 7           2             4    7     1      -0.1796013304E-03       4    7    1        -0.9376428155E-02      0.2296577466E-01
          0                 8           1             4    7     1      -0.8979790625E-04       4    7    1        -0.4688058952E-02      0.1148320485E-01

    ------------------------------------------------
       NWT REQUIRED            8 OUTER ITERATIONS 
       AND A TOTAL OF         15 INNER ITERATIONS.
    ------------------------------------------------

 NO OUTPUT CONTROL FOR STRESS PERIOD    9   TIME STEP   29
 
 SOLVING FOR HEAD 
                                                   Max.-Head-Change                         Max.-Flux-Residual
  Residual-Control   Outer-Iter.   Inner-Iter.     Column Row Layer    Maximum-Head-Change  Column Row Layer    Maximum-Flux-Residual          L2-NORM 
          0                 1           2             4    7     1      -0.3330553701E-01       4    7    1        -0.1750951047E+01      0.4779395767E+01
          0                 2           2             5    6     1      -0.7997683188E-02       4   13    1        -0.4645087314E+00      0.1315766932E+01
          0                 3           2             4    7     1      -0.2774901842E-02       4    7    1        -0.1450084675E+00      0.3526574193E+00
          0                 4           2             4    7     1      -0.1448841903E-02       5    8    1        -0.7639681090E-01      0.1864352319E+00
          0                 5           2             4    7     1      -0.7183503471E-03       4    7    1        -0.3750446665E-01      0.9175023900E-01
          0                 6           2             4    7     1      -0.3597822356E-03       5    6    1        -0.1878980780E-01      0.4601883970E-01
          0                 7           2             4    7     1      -0.1798395452E-03       4    7    1        -0.9388851912E-02      0.2299622551E-01
          0                 8           1             4    7     1      -0.8992036437E-04       4    7    1        -0.4694445950E-02      0.1149884778E-01

    ------------------------------------------------
       NWT REQUIRED            8 OUTER ITERATIONS 
       AND A TOTAL OF         15 INNER ITERATIONS.
    ------------------------------------------------

 NO OUTPUT CONTROL FOR STRESS PERIOD    9   TIME STEP   30



 STREAM LISTING     PERIOD      9   STEP       30

 LAYER ROW COL. STREAM  RCH.  FLOW INTO     FLOW TO   FLOW OUT OF   OVRLND.     DIRECT     STREAM       STREAM     STREAM     STREAM   STREAMBED  STREAMBED
                SEG.NO.  NO.  STRM. RCH.    AQUIFER    STRM. RCH.    RUNOFF     PRECIP       ET          HEAD       DEPTH      WIDTH   CONDCTNC.   GRADIENT

   1    1    1     1     1    2.2875E+01  2.3514E-01   2.2640E+01  0.000E+00  0.000E+00  0.000E+00  1.09419E+03  1.146E+00  1.260E+01  5.672E-02  1.382E+00
   1    2    2     1     2    2.2640E+01  3.6351E-01   2.2276E+01  0.000E+00  0.000E+00  0.000E+00  1.08920E+03  1.141E+00  1.254E+01  8.778E-02  1.380E+00
   1    3    3     1     3    2.2276E+01  3.0939E-01   2.1967E+01  0.000E+00  0.000E+00  0.000E+00  1.08355E+03  1.136E+00  1.247E+01  7.481E-02  1.379E+00
   1    3    4     1     4    2.1967E+01  2.8439E-01   2.1682E+01  0.000E+00  0.000E+00  0.000E+00  1.07854E+03  1.131E+00  1.240E+01  6.885E-02  1.377E+00
   1    4    5     2     1    1.9682E+01  3.1521E-01   1.9367E+01  0.000E+00  0.000E+00  0.000E+00  1.07298E+03  1.041E+00  1.200E+01  7.800E-02  1.347E+00
   1    5    6     2     2    1.9367E+01  2.4193E-01   1.9125E+01  0.000E+00  0.000E+00  0.000E+00  1.06754E+03  1.032E+00  1.200E+01  6.000E-02  1.344E+00
   1    6    6     2     3    1.9125E+01  2.4146E-01   1.8884E+01  0.000E+00  0.000E+00  0.000E+00  1.06282E+03  1.024E+00  1.200E+01  6.000E-02  1.341E+00
   1    7    6     2     4    1.8884E+01  2.4099E-01   1.8643E+01  0.000E+00  0.000E+00  0.000E+00  1.05809E+03  1.017E+00  1.200E+01  6.000E-02  1.339E+00
   1    8    6     2     5    1.8643E+01  2.4052E-01   1.8402E+01  0.000E+00  0.000E+00  0.000E+00  1.05337E+03  1.009E+00  1.200E+01  6.000E-02  1.336E+00
   1    3    5     3     1    2.0000E+00  2.8252E-01   1.7175E+00  0.000E+00  0.000E+00  0.000E+00  1.07555E+03  1.909E+00  9.636E+00  7.227E-02  1.955E+00
   1    3    6     3     2    1.7175E+00  2.4905E-01   1.4684E+00  0.000E+00  0.000E+00  0.000E+00  1.07264E+03  1.727E+00  8.909E+00  6.682E-02  1.864E+00
   1    3    7     3     3    1.4684E+00  1.9718E-01   1.2712E+00  0.000E+00  0.000E+00  0.000E+00  1.06987E+03  1.555E+00  8.218E+00  5.547E-02  1.777E+00
   1    4    8     3     4    1.2712E+00  2.2567E-01   1.0456E+00  0.000E+00  0.000E+00  0.000E+00  1.06682E+03  1.364E+00  7.455E+00  6.709E-02  1.682E+00
   1    5    8     3     5    1.0456E+00  1.5790E-01   8.8768E-01  0.000E+00  0.000E+00  0.000E+00  1.06362E+03  1.164E+00  6.655E+00  4.991E-02  1.582E+00
   1    6    8     3     6    8.8768E-01  5.5980E-02   8.3170E-01  0.000E+00  0.000E+00  0.000E+00  1.06158E+03  1.036E+00  6.145E+00  1.844E-02  1.518E+00
   1    5   10     4     1    1.0000E+01  9.0919E-02   9.9091E+00  0.000E+00  0.000E+00  0.000E+00  1.07836E+03  6.368E-01  1.000E+01  2.500E-02  1.212E+00
   1    5    9     4     2    9.9091E+00  1.8158E-01   9.7275E+00  0.000E+00  0.000E+00  0.000E+00  1.07154E+03  6.315E-01  1.000E+01  5.000E-02  1.211E+00
   1    6    8     4     3    9.7275E+00  1.2689E-01   9.6006E+00  0.000E+00  0.000E+00  0.000E+00  1.06381E+03  6.256E-01  1.000E+01  3.500E-02  1.209E+00
   1    6    8     5     1    1.0432E+01  2.2686E-01   1.0205E+01  0.000E+00  0.000E+00  0.000E+00  1.05868E+03  6.790E-01  1.542E+01  6.166E-02  1.226E+00
   1    7    7     5     2    1.0205E+01  2.7894E-01   9.9265E+00  0.000E+00  0.000E+00  0.000E+00  1.05417E+03  6.732E-01  1.519E+01  7.594E-02  1.224E+00
   1    8    7     5     3    9.9265E+00  1.9221E-01   9.7343E+00  0.000E+00  0.000E+00  0.000E+00  1.04992E+03  6.676E-01  1.497E+01  5.241E-02  1.223E+00
   1    8    6     5     4    9.7343E+00  1.3577E-01   9.5985E+00  0.000E+00  0.000E+00  0.000E+00  1.04691E+03  6.637E-01  1.482E+01  3.706E-02  1.221E+00
   1    9    6     6     1    9.5985E+00  2.2097E-01   9.3776E+00  0.000E+00  0.000E+00  0.000E+00  1.04341E+03  6.828E-01  1.200E+01  6.000E-02  1.228E+00
   1   10    7     6     2    9.3776E+00  2.2039E-01   9.1572E+00  0.000E+00  0.000E+00  0.000E+00  1.03885E+03  6.732E-01  1.200E+01  6.000E-02  1.224E+00
   1   11    7     6     3    9.1572E+00  2.1981E-01   8.9374E+00  0.000E+00  0.000E+00  0.000E+00  1.03430E+03  6.636E-01  1.200E+01  6.000E-02  1.221E+00
   1   12    7     6     4    8.9374E+00  2.1923E-01   8.7181E+00  0.000E+00  0.000E+00  0.000E+00  1.02974E+03  6.539E-01  1.200E+01  6.000E-02  1.218E+00
   1   13    7     6     5    8.7181E+00 -6.4565E-02   8.7827E+00  0.000E+00  0.000E+00  0.000E+00  1.02656E+03  6.504E-01  1.200E+01  2.400E-01 -8.967E-02
   1   14    9     7     1    1.5000E+02  1.3685E+00   1.4863E+02  0.000E+00  0.000E+00  0.000E+00  1.03987E+03  2.288E+00  5.529E+01  5.593E-01  8.156E-01
   1   13    8     7     2    1.4863E+02  1.9182E+00   1.4671E+02  0.000E+00  0.000E+00  0.000E+00  1.03478E+03  2.279E+00  5.526E+01  6.148E-01  1.040E+00
   1   13    7     7     3    1.4671E+02  1.5972E+00   1.4512E+02  0.000E+00  0.000E+00  0.000E+00  1.02969E+03  2.270E+00  5.521E+01  5.584E-01  9.534E-01
   1   13    6     8     1    1.5390E+02  9.4563E-01   1.5295E+02  0.000E+00  0.000E+00  0.000E+00  1.02472E+03  2.841E+00  4.119E+01  4.198E-01  7.509E-01
   1   13    5     8     2    1.5295E+02  2.0734E-01   1.5275E+02  0.000E+00  0.000E+00  0.000E+00  1.01846E+03  2.837E+00  4.113E+01  4.192E-01  1.649E-01
   1   13    4     8     3    1.5275E+02 -2.3142E+00   1.5506E+02  0.000E+00  0.000E+00  0.000E+00  1.01222E+03  2.844E+00  4.124E+01  4.202E+00 -1.836E-01
   1   13    3     8     4    1.5506E+02 -3.5762E+00   1.5864E+02  0.000E+00  0.000E+00  0.000E+00  1.00599E+03  2.864E+00  4.153E+01  4.232E+00 -2.817E-01
   1   13    2     8     5    1.5864E+02 -2.5604E+00   1.6120E+02  0.000E+00  0.000E+00  0.000E+00  9.99760E+02  2.885E+00  4.184E+01  4.263E+00 -2.002E-01
   1   13    1     8     6    1.6120E+02 -1.9764E+00   1.6317E+02  0.000E+00  0.000E+00  0.000E+00  9.94776E+02  2.901E+00  4.206E+01  2.572E+00 -2.562E-01
   1    8    6     9     1    1.8402E+01  0.0000E+00   1.8402E+01  0.000E+00  0.000E+00  0.000E+00  1.08202E+03  3.267E+00  4.000E+00  0.000E+00  2.089E+00
   1    8    5     9     2    1.8402E+01  0.0000E+00   1.8402E+01  0.000E+00  0.000E+00  0.000E+00  1.08152E+03  3.267E+00  4.000E+00  0.000E+00  2.089E+00





UNSATURATED ZONE PACKAGE VOLUMETRIC BUDGET FOR  TIME STEP    30 STRESS PERIOD    9
  ------------------------------------------------------------------------------



     CUMULATIVE VOLUMES      L**3       RATES FOR THIS TIME STEP      L**3/T
     ------------------                 ------------------------

           IN:                                      IN:
           ---                                      ---
        INFILTRATION =   463539768.4768          INFILTRATION =          52.9487

          OUT:                                     OUT:
          ----                                     ----
              UZF ET =   443471345.5654                UZF ET =          52.8406
        UZF RECHARGE =       73224.0000          UZF RECHARGE =       0.0000E+00

            IN - OUT =    19995198.9114              IN - OUT =           0.1081

          STORAGE:                                 STORAGE:
          --------                                 --------
      STORAGE CHANGE =    19995193.7095        STORAGE CHANGE =           0.1081

 PERCENT DISCREPANCY IS DIFFERENCE BETWEEN IN-OUT MINUS CHANGE IN STORAGE
 DIVIDED BY THE AVERAGE OF IN AND OUT TIMES 100

 PERCENT DISCREPANCY =           0.00     PERCENT DISCREPANCY =           0.00






1
  VOLUMETRIC BUDGET FOR AGRICULTURAL FIELDS AT  END OF TIME STEP   30, STRESS PERIOD   9
  ------------------------------------------------------------------------------

     CUMULATIVE VOLUMES      L**3       RATES FOR THIS TIME STEP      L**3/T
     ------------------                 ------------------------

           IN:                                      IN:
           ---                                      ---
               AG WELLS  =   174751168.0000                 AG WELLS  =          30.1385
      DIVERSION SEGMENTS =   195977616.0000        DIVERSION SEGMENTS =          18.4023
           GW IRRIGATION =           0.0000             GW IRRIGATION =           0.0000
           SW IRRIGATION =           0.0000             SW IRRIGATION =           0.0000
        SYSTEM LOSSES GW =           0.0000          SYSTEM LOSSES GW =           0.0000
        SYSTEM LOSSES SW =           0.0000          SYSTEM LOSSES SW =           0.0000

                TOTAL IN =   370728768.0000                  TOTAL IN =          48.5408

          OUT:                                     OUT:
          ----                                     ----
               AG WELLS  =           0.0000                 AG WELLS  =           0.0000
      DIVERSION SEGMENTS =           0.0000        DIVERSION SEGMENTS =           0.0000
           GW IRRIGATION =   174751168.0000             GW IRRIGATION =          30.1385
           SW IRRIGATION =   195981440.0000             SW IRRIGATION =          18.4027
        SYSTEM LOSSES GW =           0.0000          SYSTEM LOSSES GW =           0.0000
        SYSTEM LOSSES SW =           0.0000          SYSTEM LOSSES SW =           0.0000

               TOTAL OUT =   370732608.0000                 TOTAL OUT =          48.5412

                IN - OUT =       -3840.0000                  IN - OUT =      -3.6621E-04

     PERCENT DISCREPANCY =          -0.00         PERCENT DISCREPANCY =          -0.00



1
  VOLUMETRIC BUDGET FOR ENTIRE MODEL AT END OF TIME STEP   30, STRESS PERIOD   9
  ------------------------------------------------------------------------------

     CUMULATIVE VOLUMES      L**3       RATES FOR THIS TIME STEP      L**3/T
     ------------------                 ------------------------

           IN:                                      IN:
           ---                                      ---
             STORAGE     =   183163136.0000               STORAGE     =          29.3563
       CONSTANT HEAD     =           0.0000         CONSTANT HEAD     =           0.0000
     HEAD DEP BOUNDS     =     6082172.0000       HEAD DEP BOUNDS     =           0.2880
      STREAM LEAKAGE     =   250412224.0000        STREAM LEAKAGE     =          11.7913
        UZF RECHARGE     =       73223.9531          UZF RECHARGE     =           0.0000
               GW ET     =           0.0000                 GW ET     =           0.0000
     SURFACE LEAKAGE     =           0.0000       SURFACE LEAKAGE     =           0.0000
           AG WELLS      =           0.0000             AG WELLS      =           0.0000

                TOTAL IN =   439730752.0000                  TOTAL IN =          41.4356

          OUT:                                     OUT:
          ----                                     ----
             STORAGE     =    39969196.0000               STORAGE     =           0.5158
       CONSTANT HEAD     =           0.0000         CONSTANT HEAD     =           0.0000
     HEAD DEP BOUNDS     =     6088564.0000       HEAD DEP BOUNDS     =           0.2867
      STREAM LEAKAGE     =   218906320.0000        STREAM LEAKAGE     =          10.4918
        UZF RECHARGE     =           0.0000          UZF RECHARGE     =           0.0000
               GW ET     =           0.0000                 GW ET     =           0.0000
     SURFACE LEAKAGE     =           0.0000       SURFACE LEAKAGE     =           0.0000
           AG WELLS      =   174751168.0000             AG WELLS      =          30.1385

               TOTAL OUT =   439715264.0000                 TOTAL OUT =          41.4328

                IN - OUT =       15488.0000                  IN - OUT =       2.7924E-03

     PERCENT DISCREPANCY =           0.00         PERCENT DISCREPANCY =           0.01






         TIME SUMMARY AT END OF TIME STEP   30 IN STRESS PERIOD    9
                    SECONDS     MINUTES      HOURS       DAYS        YEARS
                    -----------------------------------------------------------
   TIME STEP LENGTH  87667.      1461.1      24.352      1.0147     2.77799E-03
 STRESS PERIOD TIME 2.63000E+06  43833.      730.56      30.440     8.33397E-02
         TOTAL TIME 2.11264E+07 3.52107E+05  5868.4      244.52     0.66945    
1
1
                            STRESS PERIOD NO.   10, LENGTH =   2630000.    
                            -----------------------------------------------

                              NUMBER OF TIME STEPS =    30

                               MULTIPLIER FOR DELT =     1.000

                            INITIAL TIME STEP SIZE =   87666.66    

 REUSING NON-PARAMETER GHB CELLS FROM LAST STRESS PERIOD

      2 GHB CELLS

 REUSING STREAM SEGMENT DATA FROM LAST STRESS PERIOD



            AREAL INFILTRATION RATE
 READING ON UNIT   19 WITH FORMAT: (10F4.0)            

            1           2           3           4           5           6           7           8           9          10
 ........................................................................................................................
   1   1.2000E-09   0.000       0.000       0.000       0.000       0.000       0.000       0.000       0.000       0.000    
   2   2.1000E-09  2.0000E-09  8.0000E-10  8.5000E-09   0.000       0.000       0.000       0.000       0.000       0.000    
   3   5.0000E-10  1.1000E-09  8.8000E-09  5.5000E-09   0.000       0.000       0.000       0.000       0.000       0.000    
   4   8.5000E-09  1.1000E-09  1.1000E-09  1.1000E-09  2.0000E-09   0.000       0.000       0.000       0.000       0.000    
   5   8.5000E-09  1.1000E-09  1.1000E-09  1.1000E-09  1.1000E-09   0.000       0.000       0.000       0.000       0.000    
   6   8.5000E-09  5.2000E-09  2.1000E-09  1.1000E-09  1.5000E-09   0.000       0.000       0.000       0.000       0.000    
   7   8.5000E-09  5.2000E-09  2.1000E-09  1.2000E-09  2.0000E-09   0.000       0.000       0.000       0.000       0.000    
   8   5.0000E-10  5.2000E-09  2.1000E-09  1.2000E-09  5.0000E-09   0.000       0.000       0.000       0.000       0.000    
   9   5.0000E-10  5.2000E-09  2.1000E-09  1.2000E-09  5.0000E-09   0.000       0.000       0.000       0.000       0.000    
  10   5.0000E-10  5.2000E-09  2.1000E-09  1.2000E-09  5.8000E-09   0.000       0.000       0.000       0.000       0.000    
  11   1.0000E-10  1.1000E-09  1.1000E-09  1.2000E-09  5.0000E-09   0.000       0.000       0.000       0.000       0.000    
  12   1.1000E-09  1.1000E-09  1.1000E-09  1.1000E-09  2.0000E-09   0.000       0.000       0.000       0.000       0.000    
  13   1.1000E-09  2.2000E-09  2.2000E-09  2.1000E-09  1.0000E-09   0.000       0.000       0.000       0.000       0.000    
  14   2.0000E-10  5.5000E-09  5.5000E-09  5.2000E-09  1.0000E-09   0.000       0.000       0.000       0.000       0.000    
  15    0.000      8.8000E-09  8.8000E-09   0.000       0.000       0.000       0.000       0.000       0.000       0.000    

                  ET RATE =  7.500000E-08

 USING ET EXTINCTION DEPTH FROM PREVIOUS STRESS PERIOD. CURRENT PERIOD IS:      10

 USING EXTINCTION WATER CONTENT FROM PREVIOUS STRESS PERIOD. CURRENT PERIOD IS:      10

 USING AIR ENTRY PRESSURE FROM PREVIOUS STRESS PERIOD. CURRENT PERIOD IS:      10

 USING ROOT PRESSURE HEAD FROM PREVIOUS STRESS PERIOD. CURRENT PERIOD IS:      10

 USING ROOT ACTIVITY FROM PREVIOUS STRESS PERIOD. CURRENT PERIOD IS:      10

 PROCESSING AG STRESS PERIOD DATA

 READING AG STRESS PERIOD DATA

 READING IRRIGATION SEGMENT

 READING IRRIGATION WELL

 READING SUPPLEMENTAL WELL

 END PROCESSING AG STRESS PERIOD DATA OPTIONS
 
 SOLVING FOR HEAD 
                                                   Max.-Head-Change                         Max.-Flux-Residual
  Residual-Control   Outer-Iter.   Inner-Iter.     Column Row Layer    Maximum-Head-Change  Column Row Layer    Maximum-Flux-Residual          L2-NORM 
          0                 1           2             5    6     1       0.5899325228E-01       5    8    1         0.3197994569E+01      0.7950485969E+01
          0                 2           2             5    6     1      -0.5738382764E-02       5    8    1        -0.3197958268E+00      0.9043705581E+00
          0                 3           2             5    6     1       0.3907630943E-03       5    8    1         0.2238575173E-01      0.5836908676E-01
          0                 4           2             4   13     1      -0.1367383456E-03       4   13    1        -0.8044340681E-02      0.1399291152E-01
          0                 5           1             4   13     1      -0.6189335634E-04       4   13    1        -0.3640789821E-02      0.6585531683E-02

    ------------------------------------------------
       NWT REQUIRED            5 OUTER ITERATIONS 
       AND A TOTAL OF          9 INNER ITERATIONS.
    ------------------------------------------------

 NO OUTPUT CONTROL FOR STRESS PERIOD   10   TIME STEP    1
 
 SOLVING FOR HEAD 
                                                   Max.-Head-Change                         Max.-Flux-Residual
  Residual-Control   Outer-Iter.   Inner-Iter.     Column Row Layer    Maximum-Head-Change  Column Row Layer    Maximum-Flux-Residual          L2-NORM 
          0                 1           2             5    6     1       0.5664617636E-01       5    6    1         0.3065968976E+01      0.7690771632E+01
          0                 2           2             5    6     1      -0.5510079812E-02       5    6    1        -0.3065935439E+00      0.8705806748E+00
          0                 3           2             7   13     1      -0.5037705097E-03       7   13    1        -0.2802590546E-01      0.6315936414E-01
          0                 4           2             4   13     1      -0.1362884921E-03       4   13    1        -0.8012698938E-02      0.1403418254E-01
          0                 5           1             4   13     1      -0.5928396656E-04       4   13    1        -0.3485041640E-02      0.6235179967E-02

    ------------------------------------------------
       NWT REQUIRED            5 OUTER ITERATIONS 
       AND A TOTAL OF          9 INNER ITERATIONS.
    ------------------------------------------------

 NO OUTPUT CONTROL FOR STRESS PERIOD   10   TIME STEP    2
 
 SOLVING FOR HEAD 
                                                   Max.-Head-Change                         Max.-Flux-Residual
  Residual-Control   Outer-Iter.   Inner-Iter.     Column Row Layer    Maximum-Head-Change  Column Row Layer    Maximum-Flux-Residual          L2-NORM 
          0                 1           2             5    6     1       0.5443371726E-01       5    6    1         0.2943996198E+01      0.7453565318E+01
          0                 2           2             5    6     1      -0.5294871547E-02       5    6    1        -0.2943965192E+00      0.8494418237E+00
          0                 3           2             7   13     1      -0.5058974056E-03       7   13    1        -0.2814381748E-01      0.6190500508E-01
          0                 4           2             4   13     1      -0.1372845785E-03       4   13    1        -0.8071228274E-02      0.1412785315E-01
          0                 5           1             4   13     1      -0.5708155529E-04       4   13    1        -0.3355560939E-02      0.6005520317E-02

    ------------------------------------------------
       NWT REQUIRED            5 OUTER ITERATIONS 
       AND A TOTAL OF          9 INNER ITERATIONS.
    ------------------------------------------------

 NO OUTPUT CONTROL FOR STRESS PERIOD   10   TIME STEP    3
 
 SOLVING FOR HEAD 
                                                   Max.-Head-Change                         Max.-Flux-Residual
  Residual-Control   Outer-Iter.   Inner-Iter.     Column Row Layer    Maximum-Head-Change  Column Row Layer    Maximum-Flux-Residual          L2-NORM 
          0                 1           2             5    6     1       0.5234661914E-01       5    6    1         0.2829011323E+01      0.7229175281E+01
          0                 2           2             5    6     1      -0.5091857185E-02       5    6    1        -0.2828982639E+00      0.8295755805E+00
          0                 3           2             7   13     1      -0.5078422884E-03       7   13    1        -0.2825160657E-01      0.6073824355E-01
          0                 4           2             4   13     1      -0.1382296582E-03       4   13    1        -0.8126744534E-02      0.1421830690E-01
          0                 5           1             4   13     1      -0.5503851501E-04       4   13    1        -0.3235454681E-02      0.5793181693E-02

    ------------------------------------------------
       NWT REQUIRED            5 OUTER ITERATIONS 
       AND A TOTAL OF          9 INNER ITERATIONS.
    ------------------------------------------------

 NO OUTPUT CONTROL FOR STRESS PERIOD   10   TIME STEP    4
 
 SOLVING FOR HEAD 
                                                   Max.-Head-Change                         Max.-Flux-Residual
  Residual-Control   Outer-Iter.   Inner-Iter.     Column Row Layer    Maximum-Head-Change  Column Row Layer    Maximum-Flux-Residual          L2-NORM 
          0                 1           2             5    6     1       0.5037634511E-01       5    6    1         0.2720534471E+01      0.7016658104E+01
          0                 2           2             5    6     1      -0.4900206346E-02       5    6    1        -0.2720507921E+00      0.8108816856E+00
          0                 3           2             7   13     1      -0.5096236973E-03       7   13    1        -0.2835029832E-01      0.5964277295E-01
          0                 4           2             4   13     1      -0.1391839007E-03       4   13    1        -0.8182830817E-02      0.1430830065E-01
          0                 5           1             4   13     1      -0.5318698983E-04       4   13    1        -0.3126606929E-02      0.5597867976E-02

    ------------------------------------------------
       NWT REQUIRED            5 OUTER ITERATIONS 
       AND A TOTAL OF          9 INNER ITERATIONS.
    ------------------------------------------------

 NO OUTPUT CONTROL FOR STRESS PERIOD   10   TIME STEP    5
 
 SOLVING FOR HEAD 
                                                   Max.-Head-Change                         Max.-Flux-Residual
  Residual-Control   Outer-Iter.   Inner-Iter.     Column Row Layer    Maximum-Head-Change  Column Row Layer    Maximum-Flux-Residual          L2-NORM 
          0                 1           2             5    6     1       0.4851546325E-01       5    6    1         0.2618147655E+01      0.6815169009E+01
          0                 2           2             5    6     1      -0.4719196132E-02       5    6    1        -0.2618123065E+00      0.7932748561E+00
          0                 3           2             7   13     1      -0.5112507053E-03       7   13    1        -0.2844039623E-01      0.5863341729E-01
          0                 4           2             4   13     1      -0.1401271715E-03       4   13    1        -0.8238286273E-02      0.1439610046E-01
          0                 5           1             4   13     1      -0.5145379162E-04       4   13    1        -0.3024715907E-02      0.5418348735E-02

    ------------------------------------------------
       NWT REQUIRED            5 OUTER ITERATIONS 
       AND A TOTAL OF          9 INNER ITERATIONS.
    ------------------------------------------------

 NO OUTPUT CONTROL FOR STRESS PERIOD   10   TIME STEP    6
 
 SOLVING FOR HEAD 
                                                   Max.-Head-Change                         Max.-Flux-Residual
  Residual-Control   Outer-Iter.   Inner-Iter.     Column Row Layer    Maximum-Head-Change  Column Row Layer    Maximum-Flux-Residual          L2-NORM 
          0                 1           2             5    7     1       0.4733780121E-01       5    6    1         0.2521424480E+01      0.6623918744E+01
          0                 2           2             5    7     1      -0.4604664946E-02       5    6    1        -0.2521401693E+00      0.7766803476E+00
          0                 3           2             7   13     1      -0.5127377531E-03       7   13    1        -0.2852270166E-01      0.5769390968E-01
          0                 4           2             4   13     1      -0.1410236485E-03       4   13    1        -0.8290977204E-02      0.1448177363E-01
          0                 5           1             4   13     1      -0.4986494423E-04       4   13    1        -0.2931300775E-02      0.5252556253E-02

    ------------------------------------------------
       NWT REQUIRED            5 OUTER ITERATIONS 
       AND A TOTAL OF          9 INNER ITERATIONS.
    ------------------------------------------------

 NO OUTPUT CONTROL FOR STRESS PERIOD   10   TIME STEP    7
 
 SOLVING FOR HEAD 
                                                   Max.-Head-Change                         Max.-Flux-Residual
  Residual-Control   Outer-Iter.   Inner-Iter.     Column Row Layer    Maximum-Head-Change  Column Row Layer    Maximum-Flux-Residual          L2-NORM 
          0                 1           2             5    7     1       0.4635922279E-01       5    7    1         0.2460208753E+01      0.6442191103E+01
          0                 2           2             5    7     1      -0.4509479287E-02       5    7    1        -0.2460200901E+00      0.7611971071E+00
          0                 3           2             7   13     1      -0.5144253754E-03       7   13    1        -0.2861664483E-01      0.5674084506E-01
          0                 4           2             4   13     1      -0.1412857129E-03       4   13    1        -0.8306362086E-02      0.1450056255E-01
          0                 5           1             4   13     1      -0.4826859845E-04       4   13    1        -0.2837465670E-02      0.5085866653E-02

    ------------------------------------------------
       NWT REQUIRED            5 OUTER ITERATIONS 
       AND A TOTAL OF          9 INNER ITERATIONS.
    ------------------------------------------------

 NO OUTPUT CONTROL FOR STRESS PERIOD   10   TIME STEP    8
 
 SOLVING FOR HEAD 
                                                   Max.-Head-Change                         Max.-Flux-Residual
  Residual-Control   Outer-Iter.   Inner-Iter.     Column Row Layer    Maximum-Head-Change  Column Row Layer    Maximum-Flux-Residual          L2-NORM 
          0                 1           2             5    7     1       0.4539986025E-01       5    7    1         0.2409355768E+01      0.6269333414E+01
          0                 2           2             5    7     1      -0.4416162386E-02       5    7    1        -0.2409349893E+00      0.7463042967E+00
          0                 3           2             7   13     1      -0.5154779364E-03       7   13    1        -0.2867452579E-01      0.5596536684E-01
          0                 4           2             4   13     1      -0.1424346063E-03       4   13    1        -0.8373881712E-02      0.1461611487E-01
          0                 5           1             4   13     1      -0.4699535245E-04       4   13    1        -0.2762608389E-02      0.4953350136E-02

    ------------------------------------------------
       NWT REQUIRED            5 OUTER ITERATIONS 
       AND A TOTAL OF          9 INNER ITERATIONS.
    ------------------------------------------------

 NO OUTPUT CONTROL FOR STRESS PERIOD   10   TIME STEP    9
 
 SOLVING FOR HEAD 
                                                   Max.-Head-Change                         Max.-Flux-Residual
  Residual-Control   Outer-Iter.   Inner-Iter.     Column Row Layer    Maximum-Head-Change  Column Row Layer    Maximum-Flux-Residual          L2-NORM 
          0                 1           2             4    7     1       0.4465323697E-01       5    7    1         0.2359490910E+01      0.6104735848E+01
          0                 2           2             4    7     1      -0.4343542306E-02       5    7    1        -0.2359486760E+00      0.7321492366E+00
          0                 3           2             7   13     1      -0.5163192717E-03       7   13    1        -0.2872049470E-01      0.5527823799E-01
          0                 4           2             4   13     1      -0.1437604939E-03       4   13    1        -0.8451829930E-02      0.1474711137E-01
          0                 5           1             4   13     1      -0.4585240982E-04       4   13    1        -0.2695402620E-02      0.4835508466E-02

    ------------------------------------------------
       NWT REQUIRED            5 OUTER ITERATIONS 
       AND A TOTAL OF          9 INNER ITERATIONS.
    ------------------------------------------------

 NO OUTPUT CONTROL FOR STRESS PERIOD   10   TIME STEP   10
 
 SOLVING FOR HEAD 
                                                   Max.-Head-Change                         Max.-Flux-Residual
  Residual-Control   Outer-Iter.   Inner-Iter.     Column Row Layer    Maximum-Head-Change  Column Row Layer    Maximum-Flux-Residual          L2-NORM 
          0                 1           2             4    7     1       0.4429935251E-01       4    7    1         0.2320101293E+01      0.5947845359E+01
          0                 2           2             4    7     1      -0.4309121721E-02       4   13    1        -0.2354754530E+00      0.7188794835E+00
          0                 3           2             7   13     1      -0.5172976203E-03       7   13    1        -0.2877441736E-01      0.5458477206E-01
          0                 4           2             4   13     1      -0.1446642617E-03       4   13    1        -0.8504960189E-02      0.1483474308E-01
          0                 5           1             4   13     1      -0.4471162316E-04       4   13    1        -0.2628339822E-02      0.4716647500E-02

    ------------------------------------------------
       NWT REQUIRED            5 OUTER ITERATIONS 
       AND A TOTAL OF          9 INNER ITERATIONS.
    ------------------------------------------------

 NO OUTPUT CONTROL FOR STRESS PERIOD   10   TIME STEP   11
 
 SOLVING FOR HEAD 
                                                   Max.-Head-Change                         Max.-Flux-Residual
  Residual-Control   Outer-Iter.   Inner-Iter.     Column Row Layer    Maximum-Head-Change  Column Row Layer    Maximum-Flux-Residual          L2-NORM 
          0                 1           2             4    7     1       0.4392461533E-01       4    7    1         0.2301716389E+01      0.5798147251E+01
          0                 2           2             4    7     1      -0.4272672440E-02       4   13    1        -0.2354559499E+00      0.7065555974E+00
          0                 3           2             7   13     1      -0.5185927851E-03       7   13    1        -0.2884656859E-01      0.5382686985E-01
          0                 4           2             4   13     1      -0.1447948046E-03       4   13    1        -0.8512620772E-02      0.1484380356E-01
          0                 5           1             4   13     1      -0.4349892677E-04       4   13    1        -0.2557054429E-02      0.4589180300E-02

    ------------------------------------------------
       NWT REQUIRED            5 OUTER ITERATIONS 
       AND A TOTAL OF          9 INNER ITERATIONS.
    ------------------------------------------------

 NO OUTPUT CONTROL FOR STRESS PERIOD   10   TIME STEP   12
 
 SOLVING FOR HEAD 
                                                   Max.-Head-Change                         Max.-Flux-Residual
  Residual-Control   Outer-Iter.   Inner-Iter.     Column Row Layer    Maximum-Head-Change  Column Row Layer    Maximum-Flux-Residual          L2-NORM 
          0                 1           2             4    7     1       0.4353105130E-01       4    7    1         0.2282242979E+01      0.5655171576E+01
          0                 2           2             4    7     1      -0.4234391550E-02       4   13    1        -0.2352847857E+00      0.6947303231E+00
          0                 3           2             7   13     1      -0.5195289603E-03       7   13    1        -0.2889837136E-01      0.5317979353E-01
          0                 4           2             4   13     1      -0.1453814256E-03       4   13    1        -0.8547094140E-02      0.1489981098E-01
          0                 5           1             4   13     1      -0.4247029136E-04       4   13    1        -0.2496605829E-02      0.4480889930E-02

    ------------------------------------------------
       NWT REQUIRED            5 OUTER ITERATIONS 
       AND A TOTAL OF          9 INNER ITERATIONS.
    ------------------------------------------------

 NO OUTPUT CONTROL FOR STRESS PERIOD   10   TIME STEP   13
 
 SOLVING FOR HEAD 
                                                   Max.-Head-Change                         Max.-Flux-Residual
  Residual-Control   Outer-Iter.   Inner-Iter.     Column Row Layer    Maximum-Head-Change  Column Row Layer    Maximum-Flux-Residual          L2-NORM 
          0                 1           2             4    7     1       0.4312068764E-01       4    7    1         0.2261793411E+01      0.5518493598E+01
          0                 2           2             4    7     1      -0.4194476266E-02       4   13    1        -0.2351276229E+00      0.6835202323E+00
          0                 3           2             7   13     1      -0.5203870270E-03       7   13    1        -0.2894583885E-01      0.5256999645E-01
          0                 4           2             4   13     1      -0.1459314857E-03       4   13    1        -0.8579437645E-02      0.1495185809E-01
          0                 5           1             4   13     1      -0.4266644491E-04       4   13    1        -0.2508106085E-02      0.4502645188E-02

    ------------------------------------------------
       NWT REQUIRED            5 OUTER ITERATIONS 
       AND A TOTAL OF          9 INNER ITERATIONS.
    ------------------------------------------------

 NO OUTPUT CONTROL FOR STRESS PERIOD   10   TIME STEP   14
 
 SOLVING FOR HEAD 
                                                   Max.-Head-Change                         Max.-Flux-Residual
  Residual-Control   Outer-Iter.   Inner-Iter.     Column Row Layer    Maximum-Head-Change  Column Row Layer    Maximum-Flux-Residual          L2-NORM 
          0                 1           2             4    7     1       0.4269555125E-01       4    7    1         0.2240480110E+01      0.5387704415E+01
          0                 2           2             4    7     1      -0.4153123773E-02       4   13    1        -0.2349833707E+00      0.6728805043E+00
          0                 3           2             7   13     1      -0.5211311189E-03       7   13    1        -0.2898698467E-01      0.5199155198E-01
          0                 4           2             4   13     1      -0.1464186920E-03       4   13    1        -0.8608082317E-02      0.1499808552E-01
          0                 5           1             4   13     1      -0.4287626091E-04       4   13    1        -0.2520438623E-02      0.4524260646E-02

    ------------------------------------------------
       NWT REQUIRED            5 OUTER ITERATIONS 
       AND A TOTAL OF          9 INNER ITERATIONS.
    ------------------------------------------------

 NO OUTPUT CONTROL FOR STRESS PERIOD   10   TIME STEP   15
 
 SOLVING FOR HEAD 
                                                   Max.-Head-Change                         Max.-Flux-Residual
  Residual-Control   Outer-Iter.   Inner-Iter.     Column Row Layer    Maximum-Head-Change  Column Row Layer    Maximum-Flux-Residual          L2-NORM 
          0                 1           2             4    7     1       0.4225713493E-01       4    7    1         0.2218386225E+01      0.5262440750E+01
          0                 2           2             4    7     1      -0.4110479297E-02       4   13    1        -0.2348484053E+00      0.6627754306E+00
          0                 3           2             7   13     1      -0.5217677095E-03       7   13    1        -0.2902216866E-01      0.5144117484E-01
          0                 4           2             4   13     1      -0.1468558491E-03       4   13    1        -0.8633783872E-02      0.1503903369E-01
          0                 5           1             4   13     1      -0.4306570289E-04       4   13    1        -0.2531582886E-02      0.4543573994E-02

    ------------------------------------------------
       NWT REQUIRED            5 OUTER ITERATIONS 
       AND A TOTAL OF          9 INNER ITERATIONS.
    ------------------------------------------------

 NO OUTPUT CONTROL FOR STRESS PERIOD   10   TIME STEP   16
 
 SOLVING FOR HEAD 
                                                   Max.-Head-Change                         Max.-Flux-Residual
  Residual-Control   Outer-Iter.   Inner-Iter.     Column Row Layer    Maximum-Head-Change  Column Row Layer    Maximum-Flux-Residual          L2-NORM 
          0                 1           2             4    7     1       0.4180709108E-01       4    7    1         0.2195603781E+01      0.5142352896E+01
          0                 2           2             4    7     1      -0.4066703589E-02       4   13    1        -0.2347236632E+00      0.6531701759E+00
          0                 3           2             7   13     1      -0.5223136918E-03       7   13    1        -0.2905231763E-01      0.5091699721E-01
          0                 4           2             4   13     1      -0.1472387177E-03       4   13    1        -0.8656280409E-02      0.1507703956E-01
          0                 5           1             4   13     1      -0.4322181540E-04       4   13    1        -0.2540751274E-02      0.4560677127E-02

    ------------------------------------------------
       NWT REQUIRED            5 OUTER ITERATIONS 
       AND A TOTAL OF          9 INNER ITERATIONS.
    ------------------------------------------------

 NO OUTPUT CONTROL FOR STRESS PERIOD   10   TIME STEP   17
 
 SOLVING FOR HEAD 
                                                   Max.-Head-Change                         Max.-Flux-Residual
  Residual-Control   Outer-Iter.   Inner-Iter.     Column Row Layer    Maximum-Head-Change  Column Row Layer    Maximum-Flux-Residual          L2-NORM 
          0                 1           2             4    7     1       0.4134709723E-01       4    7    1         0.2172225771E+01      0.5027152402E+01
          0                 2           2             4    7     1      -0.4021959845E-02       4   13    1        -0.2346051947E+00      0.6440332669E+00
          0                 3           2             7   13     1      -0.5227753233E-03       7   13    1        -0.2907779216E-01      0.5041954702E-01
          0                 4           2             4   13     1      -0.1475836415E-03       4   13    1        -0.8676555377E-02      0.1510870951E-01
          0                 5           1             4   13     1      -0.4338321439E-04       4   13    1        -0.2550257220E-02      0.4575669432E-02

    ------------------------------------------------
       NWT REQUIRED            5 OUTER ITERATIONS 
       AND A TOTAL OF          9 INNER ITERATIONS.
    ------------------------------------------------

 NO OUTPUT CONTROL FOR STRESS PERIOD   10   TIME STEP   18
 
 SOLVING FOR HEAD 
                                                   Max.-Head-Change                         Max.-Flux-Residual
  Residual-Control   Outer-Iter.   Inner-Iter.     Column Row Layer    Maximum-Head-Change  Column Row Layer    Maximum-Flux-Residual          L2-NORM 
          0                 1           2             4    7     1       0.4087831047E-01       4    7    1         0.2148317223E+01      0.4916519063E+01
          0                 2           2             4    7     1      -0.3976360623E-02       4    7    1        -0.2148328041E+00      0.6113702343E+00
          0                 3           2             4   13     1      -0.4921727640E-03       4   13    1        -0.2893073862E-01      0.6686867202E-01
          0                 4           2             4   13     1      -0.2131667138E-03       4   13    1        -0.1253210308E-01      0.2203680123E-01
          0                 5           1             4   13     1      -0.6711487638E-04       4   13    1        -0.3945303190E-02      0.7059436519E-02

    ------------------------------------------------
       NWT REQUIRED            5 OUTER ITERATIONS 
       AND A TOTAL OF          9 INNER ITERATIONS.
    ------------------------------------------------

 NO OUTPUT CONTROL FOR STRESS PERIOD   10   TIME STEP   19
 
 SOLVING FOR HEAD 
                                                   Max.-Head-Change                         Max.-Flux-Residual
  Residual-Control   Outer-Iter.   Inner-Iter.     Column Row Layer    Maximum-Head-Change  Column Row Layer    Maximum-Flux-Residual          L2-NORM 
          0                 1           2             4    7     1       0.4040233524E-01       4    7    1         0.2123967399E+01      0.4810190508E+01
          0                 2           2             4    7     1      -0.3930062026E-02       4    7    1        -0.2123978756E+00      0.6025159039E+00
          0                 3           2             4   13     1      -0.4970906757E-03       4   13    1        -0.2921980849E-01      0.6687337773E-01
          0                 4           2             4   13     1      -0.2145182900E-03       4   13    1        -0.1261152299E-01      0.2218028499E-01
          0                 5           1             4   13     1      -0.6774810557E-04       4   13    1        -0.3982565047E-02      0.7111620528E-02

    ------------------------------------------------
       NWT REQUIRED            5 OUTER ITERATIONS 
       AND A TOTAL OF          9 INNER ITERATIONS.
    ------------------------------------------------

 NO OUTPUT CONTROL FOR STRESS PERIOD   10   TIME STEP   20
 
 SOLVING FOR HEAD 
                                                   Max.-Head-Change                         Max.-Flux-Residual
  Residual-Control   Outer-Iter.   Inner-Iter.     Column Row Layer    Maximum-Head-Change  Column Row Layer    Maximum-Flux-Residual          L2-NORM 
          0                 1           2             4    7     1       0.3992026366E-01       4    7    1         0.2099237533E+01      0.4707926969E+01
          0                 2           2             4    7     1      -0.3883170292E-02       4   13    1        -0.2110434760E+00      0.5940345080E+00
          0                 3           2             4   13     1      -0.5020193230E-03       4   13    1        -0.2950951306E-01      0.6690062401E-01
          0                 4           2             4   13     1      -0.2158624706E-03       4   13    1        -0.1269053462E-01      0.2232101525E-01
          0                 5           1             4   13     1      -0.6830505834E-04       4   13    1        -0.4015306529E-02      0.7169308646E-02

    ------------------------------------------------
       NWT REQUIRED            5 OUTER ITERATIONS 
       AND A TOTAL OF          9 INNER ITERATIONS.
    ------------------------------------------------

 NO OUTPUT CONTROL FOR STRESS PERIOD   10   TIME STEP   21
 
 SOLVING FOR HEAD 
                                                   Max.-Head-Change                         Max.-Flux-Residual
  Residual-Control   Outer-Iter.   Inner-Iter.     Column Row Layer    Maximum-Head-Change  Column Row Layer    Maximum-Flux-Residual          L2-NORM 
          0                 1           2             4    7     1       0.3943323994E-01       4    7    1         0.2074191570E+01      0.4609501115E+01
          0                 2           2             4    7     1      -0.3835796732E-02       4   13    1        -0.2102836835E+00      0.5854785828E+00
          0                 3           2             4   13     1      -0.5119250637E-03       4   13    1        -0.3009190743E-01      0.6732426805E-01
          0                 4           2             4   13     1      -0.2182943705E-03       4   13    1        -0.1283349711E-01      0.2257679271E-01
          0                 5           1             4   13     1      -0.6921214578E-04       4   13    1        -0.4068624517E-02      0.7263847001E-02

    ------------------------------------------------
       NWT REQUIRED            5 OUTER ITERATIONS 
       AND A TOTAL OF          9 INNER ITERATIONS.
    ------------------------------------------------

 NO OUTPUT CONTROL FOR STRESS PERIOD   10   TIME STEP   22
 
 SOLVING FOR HEAD 
                                                   Max.-Head-Change                         Max.-Flux-Residual
  Residual-Control   Outer-Iter.   Inner-Iter.     Column Row Layer    Maximum-Head-Change  Column Row Layer    Maximum-Flux-Residual          L2-NORM 
          0                 1           2             4    7     1       0.3894218951E-01       4    7    1         0.2048881516E+01      0.4514689677E+01
          0                 2           2             4    7     1      -0.3788031376E-02       4   13    1        -0.2099734722E+00      0.5777280226E+00
          0                 3           2             4   13     1      -0.5160282762E-03       4   13    1        -0.3033310493E-01      0.6732998849E-01
          0                 4           2             4   13     1      -0.2193518218E-03       4   13    1        -0.1289566746E-01      0.2268586692E-01
          0                 5           1             4   13     1      -0.6963523150E-04       4   13    1        -0.4093479924E-02      0.7308389134E-02

    ------------------------------------------------
       NWT REQUIRED            5 OUTER ITERATIONS 
       AND A TOTAL OF          9 INNER ITERATIONS.
    ------------------------------------------------

 NO OUTPUT CONTROL FOR STRESS PERIOD   10   TIME STEP   23
 
 SOLVING FOR HEAD 
                                                   Max.-Head-Change                         Max.-Flux-Residual
  Residual-Control   Outer-Iter.   Inner-Iter.     Column Row Layer    Maximum-Head-Change  Column Row Layer    Maximum-Flux-Residual          L2-NORM 
          0                 1           2             4    7     1       0.3844822807E-01       4    7    1         0.2023369990E+01      0.4423292470E+01
          0                 2           2             4    7     1      -0.3739982764E-02       4   13    1        -0.2096406488E+00      0.5702663633E+00
          0                 3           2             4   13     1      -0.5202583582E-03       4   13    1        -0.3058173885E-01      0.6736434970E-01
          0                 4           2             4   13     1      -0.2204068020E-03       4   13    1        -0.1295768532E-01      0.2279504051E-01
          0                 5           1             4   13     1      -0.7004147890E-04       4   13    1        -0.4117376010E-02      0.7349858458E-02

    ------------------------------------------------
       NWT REQUIRED            5 OUTER ITERATIONS 
       AND A TOTAL OF          9 INNER ITERATIONS.
    ------------------------------------------------

 NO OUTPUT CONTROL FOR STRESS PERIOD   10   TIME STEP   24
 
 SOLVING FOR HEAD 
                                                   Max.-Head-Change                         Max.-Flux-Residual
  Residual-Control   Outer-Iter.   Inner-Iter.     Column Row Layer    Maximum-Head-Change  Column Row Layer    Maximum-Flux-Residual          L2-NORM 
          0                 1           2             4    7     1       0.3795225515E-01       4    7    1         0.1997707523E+01      0.4335140956E+01
          0                 2           2             4    7     1      -0.3691738399E-02       4   13    1        -0.2092918308E+00      0.5630914061E+00
          0                 3           2             4   13     1      -0.5246490165E-03       4   13    1        -0.3083983444E-01      0.6742613212E-01
          0                 4           2             4   13     1      -0.2214728238E-03       4   13    1        -0.1302036026E-01      0.2290663498E-01
          0                 5           1             4   13     1      -0.7043397942E-04       4   13    1        -0.4140453435E-02      0.7390506320E-02

    ------------------------------------------------
       NWT REQUIRED            5 OUTER ITERATIONS 
       AND A TOTAL OF          9 INNER ITERATIONS.
    ------------------------------------------------

 NO OUTPUT CONTROL FOR STRESS PERIOD   10   TIME STEP   25
 
 SOLVING FOR HEAD 
                                                   Max.-Head-Change                         Max.-Flux-Residual
  Residual-Control   Outer-Iter.   Inner-Iter.     Column Row Layer    Maximum-Head-Change  Column Row Layer    Maximum-Flux-Residual          L2-NORM 
          0                 1           2             4    7     1       0.3745496793E-01       4    7    1         0.1971933432E+01      0.4250052145E+01
          0                 2           2             4    7     1      -0.3643366113E-02       4   13    1        -0.2089280932E+00      0.5561784169E+00
          0                 3           2             4   13     1      -0.5291579208E-03       4   13    1        -0.3110487524E-01      0.6751451406E-01
          0                 4           2             4   13     1      -0.2225411740E-03       4   13    1        -0.1308318403E-01      0.2301673419E-01
          0                 5           1             4   13     1      -0.7084224594E-04       4   13    1        -0.4164439420E-02      0.7433641807E-02

    ------------------------------------------------
       NWT REQUIRED            5 OUTER ITERATIONS 
       AND A TOTAL OF          9 INNER ITERATIONS.
    ------------------------------------------------

 NO OUTPUT CONTROL FOR STRESS PERIOD   10   TIME STEP   26
 
 SOLVING FOR HEAD 
                                                   Max.-Head-Change                         Max.-Flux-Residual
  Residual-Control   Outer-Iter.   Inner-Iter.     Column Row Layer    Maximum-Head-Change  Column Row Layer    Maximum-Flux-Residual          L2-NORM 
          0                 1           2             4    7     1       0.3695727021E-01       4    7    1         0.1946098508E+01      0.4167874163E+01
          0                 2           2             4    7     1      -0.3594953828E-02       4   13    1        -0.2085518728E+00      0.5495090553E+00
          0                 3           2             4   13     1      -0.5337921202E-03       4   13    1        -0.3137729963E-01      0.6763772334E-01
          0                 4           2             4   13     1      -0.2236103806E-03       4   13    1        -0.1314602557E-01      0.2312975184E-01
          0                 5           1             4   13     1      -0.7124259181E-04       4   13    1        -0.4187990759E-02      0.7473463234E-02

    ------------------------------------------------
       NWT REQUIRED            5 OUTER ITERATIONS 
       AND A TOTAL OF          9 INNER ITERATIONS.
    ------------------------------------------------

 NO OUTPUT CONTROL FOR STRESS PERIOD   10   TIME STEP   27
 
 SOLVING FOR HEAD 
                                                   Max.-Head-Change                         Max.-Flux-Residual
  Residual-Control   Outer-Iter.   Inner-Iter.     Column Row Layer    Maximum-Head-Change  Column Row Layer    Maximum-Flux-Residual          L2-NORM 
          0                 1           2             4    7     1       0.3645972409E-01       4    7    1         0.1920234968E+01      0.4088440076E+01
          0                 2           2             4    7     1      -0.3546556225E-02       4   13    1        -0.2081648759E+00      0.5430933778E+00
          0                 3           2             4   13     1      -0.5385557319E-03       4   13    1        -0.3165732715E-01      0.6776494743E-01
          0                 4           2             4   13     1      -0.2247046614E-03       4   13    1        -0.1321036681E-01      0.2324468417E-01
          0                 5           1             4   13     1      -0.7163665528E-04       4   13    1        -0.4211140657E-02      0.7515619040E-02

    ------------------------------------------------
       NWT REQUIRED            5 OUTER ITERATIONS 
       AND A TOTAL OF          9 INNER ITERATIONS.
    ------------------------------------------------

 NO OUTPUT CONTROL FOR STRESS PERIOD   10   TIME STEP   28
 
 SOLVING FOR HEAD 
                                                   Max.-Head-Change                         Max.-Flux-Residual
  Residual-Control   Outer-Iter.   Inner-Iter.     Column Row Layer    Maximum-Head-Change  Column Row Layer    Maximum-Flux-Residual          L2-NORM 
          0                 1           2             4    7     1       0.3596311760E-01       4    7    1         0.1894386602E+01      0.4011632729E+01
          0                 2           2             4   13     1      -0.3531154588E-02       4   13    1        -0.2077681874E+00      0.5368953726E+00
          0                 3           2             4   13     1      -0.5434193751E-03       4   13    1        -0.3194323138E-01      0.6792642402E-01
          0                 4           2             4   13     1      -0.2258415756E-03       4   13    1        -0.1327683727E-01      0.2337954109E-01
          0                 5           1             4   13     1      -0.7204061155E-04       4   13    1        -0.4235302904E-02      0.7538456502E-02

    ------------------------------------------------
       NWT REQUIRED            5 OUTER ITERATIONS 
       AND A TOTAL OF          9 INNER ITERATIONS.
    ------------------------------------------------

 NO OUTPUT CONTROL FOR STRESS PERIOD   10   TIME STEP   29
 
 SOLVING FOR HEAD 
                                                   Max.-Head-Change                         Max.-Flux-Residual
  Residual-Control   Outer-Iter.   Inner-Iter.     Column Row Layer    Maximum-Head-Change  Column Row Layer    Maximum-Flux-Residual          L2-NORM 
          0                 1           2             4    7     1       0.3546803126E-01       4    7    1         0.1868586945E+01      0.3937306496E+01
          0                 2           2             4   13     1      -0.3524188793E-02       4   13    1        -0.2073602586E+00      0.5309077949E+00
          0                 3           2             4   13     1      -0.5484235940E-03       4   13    1        -0.3223741812E-01      0.6811066655E-01
          0                 4           2             4   13     1      -0.2269677608E-03       4   13    1        -0.1334342923E-01      0.2348130052E-01
          0                 5           1             4   13     1      -0.7247391852E-04       4   13    1        -0.4260405888E-02      0.7600116214E-02

    ------------------------------------------------
       NWT REQUIRED            5 OUTER ITERATIONS 
       AND A TOTAL OF          9 INNER ITERATIONS.
    ------------------------------------------------

 NO OUTPUT CONTROL FOR STRESS PERIOD   10   TIME STEP   30



 STREAM LISTING     PERIOD     10   STEP       30

 LAYER ROW COL. STREAM  RCH.  FLOW INTO     FLOW TO   FLOW OUT OF   OVRLND.     DIRECT     STREAM       STREAM     STREAM     STREAM   STREAMBED  STREAMBED
                SEG.NO.  NO.  STRM. RCH.    AQUIFER    STRM. RCH.    RUNOFF     PRECIP       ET          HEAD       DEPTH      WIDTH   CONDCTNC.   GRADIENT

   1    1    1     1     1    1.7625E+01  2.0521E-01   1.7420E+01  0.000E+00  0.000E+00  0.000E+00  1.09411E+03  1.059E+00  1.124E+01  5.056E-02  1.353E+00
   1    2    2     1     2    1.7420E+01  3.1649E-01   1.7103E+01  0.000E+00  0.000E+00  0.000E+00  1.08911E+03  1.054E+00  1.115E+01  7.807E-02  1.351E+00
   1    3    3     1     3    1.7103E+01  2.6863E-01   1.6835E+01  0.000E+00  0.000E+00  0.000E+00  1.08347E+03  1.049E+00  1.106E+01  6.635E-02  1.350E+00
   1    3    4     1     4    1.6835E+01  2.4632E-01   1.6588E+01  0.000E+00  0.000E+00  0.000E+00  1.07845E+03  1.044E+00  1.097E+01  6.091E-02  1.348E+00
   1    4    5     2     1    1.4588E+01  3.0175E-01   1.4286E+01  0.000E+00  0.000E+00  0.000E+00  1.07280E+03  8.686E-01  1.200E+01  7.800E-02  1.290E+00
   1    5    6     2     2    1.4286E+01  2.3154E-01   1.4055E+01  0.000E+00  0.000E+00  0.000E+00  1.06737E+03  8.590E-01  1.200E+01  6.000E-02  1.286E+00
   1    6    6     2     3    1.4055E+01  2.3103E-01   1.3824E+01  0.000E+00  0.000E+00  0.000E+00  1.06264E+03  8.505E-01  1.200E+01  6.000E-02  1.284E+00
   1    7    6     2     4    1.3824E+01  2.3052E-01   1.3593E+01  0.000E+00  0.000E+00  0.000E+00  1.05792E+03  8.421E-01  1.200E+01  6.000E-02  1.281E+00
   1    8    6     2     5    1.3593E+01  2.3001E-01   1.3363E+01  0.000E+00  0.000E+00  0.000E+00  1.05319E+03  8.335E-01  1.200E+01  6.000E-02  1.278E+00
   1    3    5     3     1    2.0000E+00  2.8252E-01   1.7175E+00  0.000E+00  0.000E+00  0.000E+00  1.07555E+03  1.909E+00  9.636E+00  7.227E-02  1.955E+00
   1    3    6     3     2    1.7175E+00  2.4905E-01   1.4684E+00  0.000E+00  0.000E+00  0.000E+00  1.07264E+03  1.727E+00  8.909E+00  6.682E-02  1.864E+00
   1    3    7     3     3    1.4684E+00  1.9718E-01   1.2712E+00  0.000E+00  0.000E+00  0.000E+00  1.06987E+03  1.555E+00  8.218E+00  5.547E-02  1.777E+00
   1    4    8     3     4    1.2712E+00  2.2567E-01   1.0456E+00  0.000E+00  0.000E+00  0.000E+00  1.06682E+03  1.364E+00  7.455E+00  6.709E-02  1.682E+00
   1    5    8     3     5    1.0456E+00  1.5790E-01   8.8768E-01  0.000E+00  0.000E+00  0.000E+00  1.06362E+03  1.164E+00  6.655E+00  4.991E-02  1.582E+00
   1    6    8     3     6    8.8768E-01  5.5980E-02   8.3170E-01  0.000E+00  0.000E+00  0.000E+00  1.06158E+03  1.036E+00  6.145E+00  1.844E-02  1.518E+00
   1    5   10     4     1    1.0000E+01  9.0919E-02   9.9091E+00  0.000E+00  0.000E+00  0.000E+00  1.07836E+03  6.368E-01  1.000E+01  2.500E-02  1.212E+00
   1    5    9     4     2    9.9091E+00  1.8158E-01   9.7275E+00  0.000E+00  0.000E+00  0.000E+00  1.07154E+03  6.315E-01  1.000E+01  5.000E-02  1.211E+00
   1    6    8     4     3    9.7275E+00  1.2689E-01   9.6006E+00  0.000E+00  0.000E+00  0.000E+00  1.06381E+03  6.256E-01  1.000E+01  3.500E-02  1.209E+00
   1    6    8     5     1    1.0432E+01  2.2686E-01   1.0205E+01  0.000E+00  0.000E+00  0.000E+00  1.05868E+03  6.790E-01  1.542E+01  6.166E-02  1.226E+00
   1    7    7     5     2    1.0205E+01  2.7894E-01   9.9265E+00  0.000E+00  0.000E+00  0.000E+00  1.05417E+03  6.732E-01  1.519E+01  7.594E-02  1.224E+00
   1    8    7     5     3    9.9265E+00  1.9221E-01   9.7343E+00  0.000E+00  0.000E+00  0.000E+00  1.04992E+03  6.676E-01  1.497E+01  5.241E-02  1.223E+00
   1    8    6     5     4    9.7343E+00  1.3577E-01   9.5985E+00  0.000E+00  0.000E+00  0.000E+00  1.04691E+03  6.637E-01  1.482E+01  3.706E-02  1.221E+00
   1    9    6     6     1    1.1939E+01  2.2693E-01   1.1712E+01  0.000E+00  0.000E+00  0.000E+00  1.04351E+03  7.822E-01  1.200E+01  6.000E-02  1.261E+00
   1   10    7     6     2    1.1712E+01  2.2640E-01   1.1485E+01  0.000E+00  0.000E+00  0.000E+00  1.03896E+03  7.733E-01  1.200E+01  6.000E-02  1.258E+00
   1   11    7     6     3    1.1485E+01  2.2585E-01   1.1260E+01  0.000E+00  0.000E+00  0.000E+00  1.03440E+03  7.642E-01  1.200E+01  6.000E-02  1.255E+00
   1   12    7     6     4    1.1260E+01  2.2531E-01   1.1034E+01  0.000E+00  0.000E+00  0.000E+00  1.02985E+03  7.552E-01  1.200E+01  6.000E-02  1.252E+00
   1   13    7     6     5    1.1034E+01 -4.0841E-02   1.1075E+01  0.000E+00  0.000E+00  0.000E+00  1.02666E+03  7.514E-01  1.200E+01  2.400E-01 -5.672E-02
   1   14    9     7     1    1.5000E+02  1.3687E+00   1.4863E+02  0.000E+00  0.000E+00  0.000E+00  1.03987E+03  2.288E+00  5.529E+01  5.593E-01  8.158E-01
   1   13    8     7     2    1.4863E+02  1.9193E+00   1.4671E+02  0.000E+00  0.000E+00  0.000E+00  1.03478E+03  2.279E+00  5.526E+01  6.148E-01  1.041E+00
   1   13    7     7     3    1.4671E+02  1.5960E+00   1.4512E+02  0.000E+00  0.000E+00  0.000E+00  1.02969E+03  2.270E+00  5.521E+01  5.584E-01  9.527E-01
   1   13    6     8     1    1.5619E+02  9.5963E-01   1.5523E+02  0.000E+00  0.000E+00  0.000E+00  1.02473E+03  2.857E+00  4.143E+01  4.222E-01  7.577E-01
   1   13    5     8     2    1.5523E+02  2.1769E-01   1.5501E+02  0.000E+00  0.000E+00  0.000E+00  1.01848E+03  2.853E+00  4.137E+01  4.216E-01  1.721E-01
   1   13    4     8     3    1.5501E+02 -2.2836E+00   1.5730E+02  0.000E+00  0.000E+00  0.000E+00  1.01224E+03  2.860E+00  4.147E+01  4.226E+00 -1.801E-01
   1   13    3     8     4    1.5730E+02 -3.5607E+00   1.6086E+02  0.000E+00  0.000E+00  0.000E+00  1.00601E+03  2.880E+00  4.176E+01  4.256E+00 -2.789E-01
   1   13    2     8     5    1.6086E+02 -2.5491E+00   1.6341E+02  0.000E+00  0.000E+00  0.000E+00  9.99776E+02  2.901E+00  4.206E+01  4.286E+00 -1.982E-01
   1   13    1     8     6    1.6341E+02 -1.9647E+00   1.6537E+02  0.000E+00  0.000E+00  0.000E+00  9.94791E+02  2.916E+00  4.228E+01  2.585E+00 -2.533E-01
   1    8    6     9     1    1.1023E+01  0.0000E+00   1.1023E+01  0.000E+00  0.000E+00  0.000E+00  1.08114E+03  2.392E+00  4.000E+00  0.000E+00  1.797E+00
   1    8    5     9     2    1.1023E+01  0.0000E+00   1.1023E+01  0.000E+00  0.000E+00  0.000E+00  1.08064E+03  2.392E+00  4.000E+00  0.000E+00  1.797E+00





UNSATURATED ZONE PACKAGE VOLUMETRIC BUDGET FOR  TIME STEP    30 STRESS PERIOD   10
  ------------------------------------------------------------------------------



     CUMULATIVE VOLUMES      L**3       RATES FOR THIS TIME STEP      L**3/T
     ------------------                 ------------------------

           IN:                                      IN:
           ---                                      ---
        INFILTRATION =   504066667.1194          INFILTRATION =          15.4309

          OUT:                                     OUT:
          ----                                     ----
              UZF ET =   483772144.5361                UZF ET =          15.3317
        UZF RECHARGE =       73224.0000          UZF RECHARGE =       0.0000E+00

            IN - OUT =    20221298.5833              IN - OUT =       9.9170E-02

          STORAGE:                                 STORAGE:
          --------                                 --------
      STORAGE CHANGE =    20221293.3502        STORAGE CHANGE =       9.9170E-02

 PERCENT DISCREPANCY IS DIFFERENCE BETWEEN IN-OUT MINUS CHANGE IN STORAGE
 DIVIDED BY THE AVERAGE OF IN AND OUT TIMES 100

 PERCENT DISCREPANCY =           0.00     PERCENT DISCREPANCY =           0.00






1
  VOLUMETRIC BUDGET FOR AGRICULTURAL FIELDS AT  END OF TIME STEP   30, STRESS PERIOD  10
  ------------------------------------------------------------------------------

     CUMULATIVE VOLUMES      L**3       RATES FOR THIS TIME STEP      L**3/T
     ------------------                 ------------------------

           IN:                                      IN:
           ---                                      ---
               AG WELLS  =   174751168.0000                 AG WELLS  =           0.0000
      DIVERSION SEGMENTS =   224912208.0000        DIVERSION SEGMENTS =          11.0232
           GW IRRIGATION =           0.0000             GW IRRIGATION =           0.0000
           SW IRRIGATION =           0.0000             SW IRRIGATION =           0.0000
        SYSTEM LOSSES GW =           0.0000          SYSTEM LOSSES GW =           0.0000
        SYSTEM LOSSES SW =           0.0000          SYSTEM LOSSES SW =           0.0000

                TOTAL IN =   399663360.0000                  TOTAL IN =          11.0232

          OUT:                                     OUT:
          ----                                     ----
               AG WELLS  =           0.0000                 AG WELLS  =           0.0000
      DIVERSION SEGMENTS =           0.0000        DIVERSION SEGMENTS =           0.0000
           GW IRRIGATION =   174751168.0000             GW IRRIGATION =           0.0000
           SW IRRIGATION =   224916624.0000             SW IRRIGATION =          11.0234
        SYSTEM LOSSES GW =           0.0000          SYSTEM LOSSES GW =           0.0000
        SYSTEM LOSSES SW =           0.0000          SYSTEM LOSSES SW =           0.0000

               TOTAL OUT =   399667776.0000                 TOTAL OUT =          11.0234

                IN - OUT =       -4416.0000                  IN - OUT =      -2.2030E-04

     PERCENT DISCREPANCY =          -0.00         PERCENT DISCREPANCY =          -0.00



1
  VOLUMETRIC BUDGET FOR ENTIRE MODEL AT END OF TIME STEP   30, STRESS PERIOD  10
  ------------------------------------------------------------------------------

     CUMULATIVE VOLUMES      L**3       RATES FOR THIS TIME STEP      L**3/T
     ------------------                 ------------------------

           IN:                                      IN:
           ---                                      ---
             STORAGE     =   212960368.0000               STORAGE     =           7.8954
       CONSTANT HEAD     =           0.0000         CONSTANT HEAD     =           0.0000
     HEAD DEP BOUNDS     =     6839589.5000       HEAD DEP BOUNDS     =           0.2880
      STREAM LEAKAGE     =   281012160.0000        STREAM LEAKAGE     =          11.6289
        UZF RECHARGE     =       73223.9531          UZF RECHARGE     =           0.0000
               GW ET     =           0.0000                 GW ET     =           0.0000
     SURFACE LEAKAGE     =           0.0000       SURFACE LEAKAGE     =           0.0000
           AG WELLS      =           0.0000             AG WELLS      =           0.0000

                TOTAL IN =   500885312.0000                  TOTAL IN =          19.8123

          OUT:                                     OUT:
          ----                                     ----
             STORAGE     =    73113896.0000               STORAGE     =           9.1250
       CONSTANT HEAD     =           0.0000         CONSTANT HEAD     =           0.0000
     HEAD DEP BOUNDS     =     6842975.5000       HEAD DEP BOUNDS     =           0.2869
      STREAM LEAKAGE     =   246159008.0000        STREAM LEAKAGE     =          10.3989
        UZF RECHARGE     =           0.0000          UZF RECHARGE     =           0.0000
               GW ET     =           0.0000                 GW ET     =           0.0000
     SURFACE LEAKAGE     =           0.0000       SURFACE LEAKAGE     =           0.0000
           AG WELLS      =   174751168.0000             AG WELLS      =           0.0000

               TOTAL OUT =   500867040.0000                 TOTAL OUT =          19.8109

                IN - OUT =       18272.0000                  IN - OUT =       1.3618E-03

     PERCENT DISCREPANCY =           0.00         PERCENT DISCREPANCY =           0.01






         TIME SUMMARY AT END OF TIME STEP   30 IN STRESS PERIOD   10
                    SECONDS     MINUTES      HOURS       DAYS        YEARS
                    -----------------------------------------------------------
   TIME STEP LENGTH  87667.      1461.1      24.352      1.0147     2.77799E-03
 STRESS PERIOD TIME 2.63000E+06  43833.      730.56      30.440     8.33397E-02
         TOTAL TIME 2.37564E+07 3.95940E+05  6599.0      274.96     0.75279    
1
1
                            STRESS PERIOD NO.   11, LENGTH =   2630000.    
                            -----------------------------------------------

                              NUMBER OF TIME STEPS =    30

                               MULTIPLIER FOR DELT =     1.000

                            INITIAL TIME STEP SIZE =   87666.66    

 REUSING NON-PARAMETER GHB CELLS FROM LAST STRESS PERIOD

      2 GHB CELLS

 REUSING STREAM SEGMENT DATA FROM LAST STRESS PERIOD



            AREAL INFILTRATION RATE
 READING ON UNIT   19 WITH FORMAT: (10F4.0)            

            1           2           3           4           5           6           7           8           9          10
 ........................................................................................................................
   1   1.2000E-09   0.000       0.000       0.000       0.000       0.000       0.000       0.000       0.000       0.000    
   2   2.1000E-09  2.0000E-09  8.0000E-10  8.5000E-09   0.000       0.000       0.000       0.000       0.000       0.000    
   3   5.0000E-10  1.1000E-09  8.8000E-09  5.5000E-09   0.000       0.000       0.000       0.000       0.000       0.000    
   4   8.5000E-09  1.1000E-09  1.1000E-09  1.1000E-09  2.0000E-09   0.000       0.000       0.000       0.000       0.000    
   5   8.5000E-09  1.1000E-09  1.1000E-09  1.1000E-09  1.1000E-09   0.000       0.000       0.000       0.000       0.000    
   6   8.5000E-09  5.2000E-09  2.1000E-09  1.1000E-09  1.5000E-09   0.000       0.000       0.000       0.000       0.000    
   7   8.5000E-09  5.2000E-09  2.1000E-09  1.2000E-09  2.0000E-09   0.000       0.000       0.000       0.000       0.000    
   8   5.0000E-10  5.2000E-09  2.1000E-09  1.2000E-09  5.0000E-09   0.000       0.000       0.000       0.000       0.000    
   9   5.0000E-10  5.2000E-09  2.1000E-09  1.2000E-09  5.0000E-09   0.000       0.000       0.000       0.000       0.000    
  10   5.0000E-10  5.2000E-09  2.1000E-09  1.2000E-09  5.8000E-09   0.000       0.000       0.000       0.000       0.000    
  11   1.0000E-10  1.1000E-09  1.1000E-09  1.2000E-09  5.0000E-09   0.000       0.000       0.000       0.000       0.000    
  12   1.1000E-09  1.1000E-09  1.1000E-09  1.1000E-09  2.0000E-09   0.000       0.000       0.000       0.000       0.000    
  13   1.1000E-09  2.2000E-09  2.2000E-09  2.1000E-09  1.0000E-09   0.000       0.000       0.000       0.000       0.000    
  14   2.0000E-10  5.5000E-09  5.5000E-09  5.2000E-09  1.0000E-09   0.000       0.000       0.000       0.000       0.000    
  15    0.000      8.8000E-09  8.8000E-09   0.000       0.000       0.000       0.000       0.000       0.000       0.000    

                  ET RATE =  5.000000E-09

 USING ET EXTINCTION DEPTH FROM PREVIOUS STRESS PERIOD. CURRENT PERIOD IS:      11

 USING EXTINCTION WATER CONTENT FROM PREVIOUS STRESS PERIOD. CURRENT PERIOD IS:      11

 USING AIR ENTRY PRESSURE FROM PREVIOUS STRESS PERIOD. CURRENT PERIOD IS:      11

 USING ROOT PRESSURE HEAD FROM PREVIOUS STRESS PERIOD. CURRENT PERIOD IS:      11

 USING ROOT ACTIVITY FROM PREVIOUS STRESS PERIOD. CURRENT PERIOD IS:      11

 PROCESSING AG STRESS PERIOD DATA

 READING AG STRESS PERIOD DATA

 READING IRRIGATION SEGMENT

 READING IRRIGATION WELL

 READING SUPPLEMENTAL WELL

 END PROCESSING AG STRESS PERIOD DATA OPTIONS
 
 SOLVING FOR HEAD 
                                                   Max.-Head-Change                         Max.-Flux-Residual
  Residual-Control   Outer-Iter.   Inner-Iter.     Column Row Layer    Maximum-Head-Change  Column Row Layer    Maximum-Flux-Residual          L2-NORM 
          0                 1           2             4    7     1       0.3497484409E-01       4    7    1         0.1842858774E+01      0.3858479482E+01
          0                 2           2             4    7     1      -0.3402117707E-02       4    7    1        -0.1842871839E+00      0.3873920791E+00
          0                 3           2             4    7     1       0.2316714167E-03       4    7    1         0.1290009608E-01      0.2710913324E-01
          0                 4           1             4    7     1      -0.9218423190E-05       4    7    1        -0.5276147240E-03      0.1108341467E-02

    ------------------------------------------------
       NWT REQUIRED            4 OUTER ITERATIONS 
       AND A TOTAL OF          7 INNER ITERATIONS.
    ------------------------------------------------

 NO OUTPUT CONTROL FOR STRESS PERIOD   11   TIME STEP    1
 
 SOLVING FOR HEAD 
                                                   Max.-Head-Change                         Max.-Flux-Residual
  Residual-Control   Outer-Iter.   Inner-Iter.     Column Row Layer    Maximum-Head-Change  Column Row Layer    Maximum-Flux-Residual          L2-NORM 
          0                 1           2             4    7     1       0.3448416474E-01       4    7    1         0.1817236498E+01      0.3782243717E+01
          0                 2           2             4    7     1      -0.3354387866E-02       4    7    1        -0.1817249477E+00      0.3781848187E+00
          0                 3           2             4    7     1       0.2284211926E-03       4    7    1         0.1272073955E-01      0.2646928934E-01
          0                 4           1             4    7     1      -0.9089093909E-05       4    7    1        -0.5202790317E-03      0.1082405146E-02

    ------------------------------------------------
       NWT REQUIRED            4 OUTER ITERATIONS 
       AND A TOTAL OF          7 INNER ITERATIONS.
    ------------------------------------------------

 NO OUTPUT CONTROL FOR STRESS PERIOD   11   TIME STEP    2
 
 SOLVING FOR HEAD 
                                                   Max.-Head-Change                         Max.-Flux-Residual
  Residual-Control   Outer-Iter.   Inner-Iter.     Column Row Layer    Maximum-Head-Change  Column Row Layer    Maximum-Flux-Residual          L2-NORM 
          0                 1           2             4    7     1       0.3399643232E-01       4    7    1         0.1791744130E+01      0.3713082104E+01
          0                 2           2             4    7     1      -0.3306944649E-02       4    7    1        -0.1791757000E+00      0.3712739360E+00
          0                 3           2             4    7     1       0.2251904869E-03       4    7    1         0.1254229224E-01      0.2598607255E-01
          0                 4           1             4    7     1      -0.8960540934E-05       4    7    1        -0.5129805254E-03      0.1062330257E-02

    ------------------------------------------------
       NWT REQUIRED            4 OUTER ITERATIONS 
       AND A TOTAL OF          7 INNER ITERATIONS.
    ------------------------------------------------

 NO OUTPUT CONTROL FOR STRESS PERIOD   11   TIME STEP    3
 
 SOLVING FOR HEAD 
                                                   Max.-Head-Change                         Max.-Flux-Residual
  Residual-Control   Outer-Iter.   Inner-Iter.     Column Row Layer    Maximum-Head-Change  Column Row Layer    Maximum-Flux-Residual          L2-NORM 
          0                 1           2             4    7     1       0.3351191848E-01       4    7    1         0.1766397222E+01      0.3646114679E+01
          0                 2           2             4    7     1      -0.3259814480E-02       4    7    1        -0.1766409963E+00      0.3645817398E+00
          0                 3           2             4    7     1       0.2219810989E-03       4    7    1         0.1236486302E-01      0.2551792915E-01
          0                 4           1             4    7     1      -0.8832836334E-05       4    7    1        -0.5057236549E-03      0.1043474382E-02

    ------------------------------------------------
       NWT REQUIRED            4 OUTER ITERATIONS 
       AND A TOTAL OF          7 INNER ITERATIONS.
    ------------------------------------------------

 NO OUTPUT CONTROL FOR STRESS PERIOD   11   TIME STEP    4
 
 SOLVING FOR HEAD 
                                                   Max.-Head-Change                         Max.-Flux-Residual
  Residual-Control   Outer-Iter.   Inner-Iter.     Column Row Layer    Maximum-Head-Change  Column Row Layer    Maximum-Flux-Residual          L2-NORM 
          0                 1           2             4    7     1       0.3303112504E-01       4    7    1         0.1741224511E+01      0.3581214322E+01
          0                 2           2             4    7     1      -0.3213046179E-02       4    7    1        -0.1741237105E+00      0.3580957118E+00
          0                 3           2             4    7     1       0.2187963533E-03       4    7    1         0.1218865310E-01      0.2506432649E-01
          0                 4           1             4    7     1      -0.8706112276E-05       4    7    1        -0.4985166629E-03      0.1024995320E-02

    ------------------------------------------------
       NWT REQUIRED            4 OUTER ITERATIONS 
       AND A TOTAL OF          7 INNER ITERATIONS.
    ------------------------------------------------

 NO OUTPUT CONTROL FOR STRESS PERIOD   11   TIME STEP    5
 
 SOLVING FOR HEAD 
                                                   Max.-Head-Change                         Max.-Flux-Residual
  Residual-Control   Outer-Iter.   Inner-Iter.     Column Row Layer    Maximum-Head-Change  Column Row Layer    Maximum-Flux-Residual          L2-NORM 
          0                 1           2             4    7     1       0.3255437706E-01       4    7    1         0.1716244690E+01      0.3518286553E+01
          0                 2           2             4    7     1      -0.3166671367E-02       4    7    1        -0.1716257122E+00      0.3518064181E+00
          0                 3           2             4    7     1       0.2156384024E-03       4    7    1         0.1201379327E-01      0.2462439663E-01
          0                 4           1             4    7     1      -0.8580454759E-05       4    7    1        -0.4913648881E-03      0.1006982337E-02

    ------------------------------------------------
       NWT REQUIRED            4 OUTER ITERATIONS 
       AND A TOTAL OF          7 INNER ITERATIONS.
    ------------------------------------------------

 NO OUTPUT CONTROL FOR STRESS PERIOD   11   TIME STEP    6
 
 SOLVING FOR HEAD 
                                                   Max.-Head-Change                         Max.-Flux-Residual
  Residual-Control   Outer-Iter.   Inner-Iter.     Column Row Layer    Maximum-Head-Change  Column Row Layer    Maximum-Flux-Residual          L2-NORM 
          0                 1           2             4    7     1       0.3208196697E-01       4    7    1         0.1691474613E+01      0.3457235544E+01
          0                 2           2             4    7     1      -0.3120718495E-02       4    7    1        -0.1691486870E+00      0.3457045967E+00
          0                 3           2             4    7     1       0.2125091851E-03       4    7    1         0.1184040161E-01      0.2419772441E-01
          0                 4           1             4    7     1      -0.8455940000E-05       4    7    1        -0.4842731582E-03      0.9895675734E-03

    ------------------------------------------------
       NWT REQUIRED            4 OUTER ITERATIONS 
       AND A TOTAL OF          7 INNER ITERATIONS.
    ------------------------------------------------

 NO OUTPUT CONTROL FOR STRESS PERIOD   11   TIME STEP    7
 
 SOLVING FOR HEAD 
                                                   Max.-Head-Change                         Max.-Flux-Residual
  Residual-Control   Outer-Iter.   Inner-Iter.     Column Row Layer    Maximum-Head-Change  Column Row Layer    Maximum-Flux-Residual          L2-NORM 
          0                 1           2             4    7     1       0.3161415638E-01       4    7    1         0.1666929444E+01      0.3397968169E+01
          0                 2           2             4    7     1      -0.3075213011E-02       4    7    1        -0.1666941514E+00      0.3397801642E+00
          0                 3           2             4    7     1       0.2094104325E-03       4    7    1         0.1166858420E-01      0.2378306354E-01
          0                 4           1             4    7     1      -0.8332637764E-05       4    7    1        -0.4772458146E-03      0.9726224731E-03

    ------------------------------------------------
       NWT REQUIRED            4 OUTER ITERATIONS 
       AND A TOTAL OF          7 INNER ITERATIONS.
    ------------------------------------------------

 NO OUTPUT CONTROL FOR STRESS PERIOD   11   TIME STEP    8
 
 SOLVING FOR HEAD 
                                                   Max.-Head-Change                         Max.-Flux-Residual
  Residual-Control   Outer-Iter.   Inner-Iter.     Column Row Layer    Maximum-Head-Change  Column Row Layer    Maximum-Flux-Residual          L2-NORM 
          0                 1           2             4    7     1       0.3115117371E-01       4    7    1         0.1642622745E+01      0.3340400743E+01
          0                 2           2             4    7     1      -0.3030175077E-02       4    7    1        -0.1642634619E+00      0.3339228119E+00
          0                 3           2             4    7     1       0.2063435192E-03       4    7    1         0.1149843606E-01      0.2337325156E-01
          0                 4           1             4    7     1      -0.8210602738E-05       4    7    1        -0.4702867427E-03      0.9562127146E-03

    ------------------------------------------------
       NWT REQUIRED            4 OUTER ITERATIONS 
       AND A TOTAL OF          7 INNER ITERATIONS.
    ------------------------------------------------

 NO OUTPUT CONTROL FOR STRESS PERIOD   11   TIME STEP    9
 
 SOLVING FOR HEAD 
                                                   Max.-Head-Change                         Max.-Flux-Residual
  Residual-Control   Outer-Iter.   Inner-Iter.     Column Row Layer    Maximum-Head-Change  Column Row Layer    Maximum-Flux-Residual          L2-NORM 
          0                 1           2             4    7     1       0.3069324105E-01       4    7    1         0.1618566471E+01      0.3284536373E+01
          0                 2           2             4    7     1      -0.2985632485E-02       4    7    1        -0.1618578140E+00      0.3284414088E+00
          0                 3           2             4    7     1       0.2033103370E-03       4    7    1         0.1133004085E-01      0.2298978694E-01
          0                 4           1             4    7     1      -0.8089909409E-05       4    7    1        -0.4633993772E-03      0.9403161963E-03

    ------------------------------------------------
       NWT REQUIRED            4 OUTER ITERATIONS 
       AND A TOTAL OF          7 INNER ITERATIONS.
    ------------------------------------------------

 NO OUTPUT CONTROL FOR STRESS PERIOD   11   TIME STEP   10
 
 SOLVING FOR HEAD 
                                                   Max.-Head-Change                         Max.-Flux-Residual
  Residual-Control   Outer-Iter.   Inner-Iter.     Column Row Layer    Maximum-Head-Change  Column Row Layer    Maximum-Flux-Residual          L2-NORM 
          0                 1           2             4    7     1       0.3024053063E-01       4    7    1         0.1594771807E+01      0.3230406589E+01
          0                 2           2             4    7     1      -0.2941595799E-02       4    7    1        -0.1594783265E+00      0.3230301178E+00
          0                 3           2             4    7     1       0.2003116048E-03       4    7    1         0.1116347685E-01      0.2261110004E-01
          0                 4           1             4    7     1      -0.7970586674E-05       4    7    1        -0.4565868849E-03      0.9247315671E-03

    ------------------------------------------------
       NWT REQUIRED            4 OUTER ITERATIONS 
       AND A TOTAL OF          7 INNER ITERATIONS.
    ------------------------------------------------

 NO OUTPUT CONTROL FOR STRESS PERIOD   11   TIME STEP   11
 
 SOLVING FOR HEAD 
                                                   Max.-Head-Change                         Max.-Flux-Residual
  Residual-Control   Outer-Iter.   Inner-Iter.     Column Row Layer    Maximum-Head-Change  Column Row Layer    Maximum-Flux-Residual          L2-NORM 
          0                 1           2             4    7     1       0.2979334168E-01       4    7    1         0.1571255344E+01      0.3177747307E+01
          0                 2           2             4    7     1      -0.2898096193E-02       4    7    1        -0.1571266584E+00      0.3177657266E+00
          0                 3           2             4    7     1       0.1973494456E-03       4    7    1         0.1099886021E-01      0.2224279582E-01
          0                 4           1             4    7     1      -0.7852719728E-05       4    7    1        -0.4498540488E-03      0.9097563945E-03

    ------------------------------------------------
       NWT REQUIRED            4 OUTER ITERATIONS 
       AND A TOTAL OF          7 INNER ITERATIONS.
    ------------------------------------------------

 NO OUTPUT CONTROL FOR STRESS PERIOD   11   TIME STEP   12
 
 SOLVING FOR HEAD 
                                                   Max.-Head-Change                         Max.-Flux-Residual
  Residual-Control   Outer-Iter.   Inner-Iter.     Column Row Layer    Maximum-Head-Change  Column Row Layer    Maximum-Flux-Residual          L2-NORM 
          0                 1           2             4    7     1       0.2935153425E-01       4    7    1         0.1548010494E+01      0.3126489804E+01
          0                 2           2             4    7     1      -0.2855120057E-02       4    7    1        -0.1548021514E+00      0.3126412467E+00
          0                 3           2             4    7     1       0.1944229333E-03       4    7    1         0.1083614485E-01      0.2188416089E-01
          0                 4           1             4    7     1      -0.7736271268E-05       4    7    1        -0.4431989923E-03      0.8950087442E-03

    ------------------------------------------------
       NWT REQUIRED            4 OUTER ITERATIONS 
       AND A TOTAL OF          7 INNER ITERATIONS.
    ------------------------------------------------

 NO OUTPUT CONTROL FOR STRESS PERIOD   11   TIME STEP   13
 
 SOLVING FOR HEAD 
                                                   Max.-Head-Change                         Max.-Flux-Residual
  Residual-Control   Outer-Iter.   Inner-Iter.     Column Row Layer    Maximum-Head-Change  Column Row Layer    Maximum-Flux-Residual          L2-NORM 
          0                 1           2             4    7     1       0.2891549791E-01       4    7    1         0.1525059325E+01      0.3076584228E+01
          0                 2           2             4    7     1      -0.2812705285E-02       4    7    1        -0.1525070122E+00      0.3076517115E+00
          0                 3           2             4    7     1       0.1915346477E-03       4    7    1         0.1067548525E-01      0.2153494326E-01
          0                 4           1             4    7     1      -0.7621343414E-05       4    7    1        -0.4366279904E-03      0.8807435010E-03

    ------------------------------------------------
       NWT REQUIRED            4 OUTER ITERATIONS 
       AND A TOTAL OF          7 INNER ITERATIONS.
    ------------------------------------------------

 NO OUTPUT CONTROL FOR STRESS PERIOD   11   TIME STEP   14
 
 SOLVING FOR HEAD 
                                                   Max.-Head-Change                         Max.-Flux-Residual
  Residual-Control   Outer-Iter.   Inner-Iter.     Column Row Layer    Maximum-Head-Change  Column Row Layer    Maximum-Flux-Residual          L2-NORM 
          0                 1           2             4    7     1       0.2848532442E-01       4    7    1         0.1502407374E+01      0.3027976140E+01
          0                 2           2             4    7     1      -0.2770860848E-02       4    7    1        -0.1502417945E+00      0.3027919696E+00
          0                 3           2             4    7     1       0.1886851985E-03       4    7    1         0.1051692016E-01      0.2119483150E-01
          0                 4           1             4    7     1      -0.7507961379E-05       4    7    1        -0.4301426879E-03      0.8668242521E-03

    ------------------------------------------------
       NWT REQUIRED            4 OUTER ITERATIONS 
       AND A TOTAL OF          7 INNER ITERATIONS.
    ------------------------------------------------

 NO OUTPUT CONTROL FOR STRESS PERIOD   11   TIME STEP   15
 
 SOLVING FOR HEAD 
                                                   Max.-Head-Change                         Max.-Flux-Residual
  Residual-Control   Outer-Iter.   Inner-Iter.     Column Row Layer    Maximum-Head-Change  Column Row Layer    Maximum-Flux-Residual          L2-NORM 
          0                 1           2             4    7     1       0.2806094696E-01       4    7    1         0.1480052066E+01      0.2980607968E+01
          0                 2           2             4    7     1      -0.2729580284E-02       4    7    1        -0.1480062410E+00      0.2980561768E+00
          0                 3           2             4    7     1       0.1858741484E-03       4    7    1         0.1036043156E-01      0.2086342992E-01
          0                 4           1             4    7     1      -0.7396106741E-05       4    7    1        -0.4237422863E-03      0.8532931188E-03

    ------------------------------------------------
       NWT REQUIRED            4 OUTER ITERATIONS 
       AND A TOTAL OF          7 INNER ITERATIONS.
    ------------------------------------------------

 NO OUTPUT CONTROL FOR STRESS PERIOD   11   TIME STEP   16
 
 SOLVING FOR HEAD 
                                                   Max.-Head-Change                         Max.-Flux-Residual
  Residual-Control   Outer-Iter.   Inner-Iter.     Column Row Layer    Maximum-Head-Change  Column Row Layer    Maximum-Flux-Residual          L2-NORM 
          0                 1           2             4    7     1       0.2764256739E-01       4    7    1         0.1458004596E+01      0.2934441788E+01
          0                 2           2             4    7     1      -0.2688883021E-02       4    7    1        -0.1458014713E+00      0.2934403222E+00
          0                 3           2             4    7     1       0.1831028187E-03       4    7    1         0.1020609782E-01      0.2054042586E-01
          0                 4           1             4    7     1      -0.7285832805E-05       4    7    1        -0.4174300220E-03      0.8400869633E-03

    ------------------------------------------------
       NWT REQUIRED            4 OUTER ITERATIONS 
       AND A TOTAL OF          7 INNER ITERATIONS.
    ------------------------------------------------

 NO OUTPUT CONTROL FOR STRESS PERIOD   11   TIME STEP   17
 
 SOLVING FOR HEAD 
                                                   Max.-Head-Change                         Max.-Flux-Residual
  Residual-Control   Outer-Iter.   Inner-Iter.     Column Row Layer    Maximum-Head-Change  Column Row Layer    Maximum-Flux-Residual          L2-NORM 
          0                 1           2             4    7     1       0.2723022195E-01       4    7    1         0.1436268112E+01      0.2889421701E+01
          0                 2           2             4    7     1      -0.2648772716E-02       4    7    1        -0.1436278002E+00      0.2889388830E+00
          0                 3           2             4    7     1       0.1803714592E-03       4    7    1         0.1005394100E-01      0.2022534280E-01
          0                 4           1             4    7     1      -0.7177149817E-05       4    7    1        -0.4112068054E-03      0.8271879326E-03

    ------------------------------------------------
       NWT REQUIRED            4 OUTER ITERATIONS 
       AND A TOTAL OF          7 INNER ITERATIONS.
    ------------------------------------------------

 NO OUTPUT CONTROL FOR STRESS PERIOD   11   TIME STEP   18
 
 SOLVING FOR HEAD 
                                                   Max.-Head-Change                         Max.-Flux-Residual
  Residual-Control   Outer-Iter.   Inner-Iter.     Column Row Layer    Maximum-Head-Change  Column Row Layer    Maximum-Flux-Residual          L2-NORM 
          0                 1           2             4    7     1       0.2682394085E-01       4    7    1         0.1414844486E+01      0.2845514817E+01
          0                 2           2             4    7     1      -0.2609252306E-02       4    7    1        -0.1414854149E+00      0.2845488394E+00
          0                 3           2             4    7     1       0.1776802690E-03       4    7    1         0.9903974184E-02      0.1991822029E-01
          0                 4           1             4    7     1      -0.7070064801E-05       4    7    1        -0.4050731504E-03      0.8146593288E-03

    ------------------------------------------------
       NWT REQUIRED            4 OUTER ITERATIONS 
       AND A TOTAL OF          7 INNER ITERATIONS.
    ------------------------------------------------

 NO OUTPUT CONTROL FOR STRESS PERIOD   11   TIME STEP   19
 
 SOLVING FOR HEAD 
                                                   Max.-Head-Change                         Max.-Flux-Residual
  Residual-Control   Outer-Iter.   Inner-Iter.     Column Row Layer    Maximum-Head-Change  Column Row Layer    Maximum-Flux-Residual          L2-NORM 
          0                 1           2             4    7     1       0.2642360193E-01       4    7    1         0.1393727950E+01      0.2802671824E+01
          0                 2           2             4    7     1      -0.2570309911E-02       4    7    1        -0.1393737388E+00      0.2802648912E+00
          0                 3           2             4    7     1       0.1750284396E-03       4    7    1         0.9756157007E-02      0.1961822800E-01
          0                 4           1             4    7     1      -0.6964545980E-05       4    7    1        -0.3990274140E-03      0.8023432888E-03

    ------------------------------------------------
       NWT REQUIRED            4 OUTER ITERATIONS 
       AND A TOTAL OF          7 INNER ITERATIONS.
    ------------------------------------------------

 NO OUTPUT CONTROL FOR STRESS PERIOD   11   TIME STEP   20
 
 SOLVING FOR HEAD 
                                                   Max.-Head-Change                         Max.-Flux-Residual
  Residual-Control   Outer-Iter.   Inner-Iter.     Column Row Layer    Maximum-Head-Change  Column Row Layer    Maximum-Flux-Residual          L2-NORM 
          0                 1           2             4    7     1       0.2602948952E-01       4    7    1         0.1372934171E+01      0.2760863849E+01
          0                 2           2             4    7     1      -0.2531973188E-02       4    7    1        -0.1372943386E+00      0.2760844985E+00
          0                 3           2             4    7     1       0.1724178539E-03       4    7    1         0.9610599126E-02      0.1932567725E-01
          0                 4           1             4    7     1      -0.6860668073E-05       4    7    1        -0.3930740859E-03      0.7904018625E-03

    ------------------------------------------------
       NWT REQUIRED            4 OUTER ITERATIONS 
       AND A TOTAL OF          7 INNER ITERATIONS.
    ------------------------------------------------

 NO OUTPUT CONTROL FOR STRESS PERIOD   11   TIME STEP   21
 
 SOLVING FOR HEAD 
                                                   Max.-Head-Change                         Max.-Flux-Residual
  Residual-Control   Outer-Iter.   Inner-Iter.     Column Row Layer    Maximum-Head-Change  Column Row Layer    Maximum-Flux-Residual          L2-NORM 
          0                 1           2             4    7     1       0.2564131611E-01       4    7    1         0.1352448556E+01      0.2720042889E+01
          0                 2           2             4    7     1      -0.2494214173E-02       4    7    1        -0.1352457551E+00      0.2720027331E+00
          0                 3           2             4    7     1       0.1698466082E-03       4    7    1         0.9467198435E-02      0.1903997221E-01
          0                 4           1             4    7     1      -0.6758356247E-05       4    7    1        -0.3872089983E-03      0.7787212431E-03

    ------------------------------------------------
       NWT REQUIRED            4 OUTER ITERATIONS 
       AND A TOTAL OF          7 INNER ITERATIONS.
    ------------------------------------------------

 NO OUTPUT CONTROL FOR STRESS PERIOD   11   TIME STEP   22
 
 SOLVING FOR HEAD 
                                                   Max.-Head-Change                         Max.-Flux-Residual
  Residual-Control   Outer-Iter.   Inner-Iter.     Column Row Layer    Maximum-Head-Change  Column Row Layer    Maximum-Flux-Residual          L2-NORM 
          0                 1           2             4    7     1       0.2525934668E-01       4    7    1         0.1332285537E+01      0.2680193245E+01
          0                 2           2             4    7     1      -0.2457058638E-02       4    7    1        -0.1332294312E+00      0.2680180812E+00
          0                 3           2             4    7     1       0.1673164571E-03       4    7    1         0.9326055902E-02      0.1876109029E-01
          0                 4           1             4    7     1      -0.6657678888E-05       4    7    1        -0.3814362585E-03      0.7673332486E-03

    ------------------------------------------------
       NWT REQUIRED            4 OUTER ITERATIONS 
       AND A TOTAL OF          7 INNER ITERATIONS.
    ------------------------------------------------

 NO OUTPUT CONTROL FOR STRESS PERIOD   11   TIME STEP   23
 
 SOLVING FOR HEAD 
                                                   Max.-Head-Change                         Max.-Flux-Residual
  Residual-Control   Outer-Iter.   Inner-Iter.     Column Row Layer    Maximum-Head-Change  Column Row Layer    Maximum-Flux-Residual          L2-NORM 
          0                 1           2             4    7     1       0.2488354601E-01       4    7    1         0.1312444182E+01      0.2641261177E+01
          0                 2           2             4    7     1      -0.2420503160E-02       4    7    1        -0.1312452743E+00      0.2641251077E+00
          0                 3           2             4    7     1       0.1648271679E-03       4    7    1         0.9187165069E-02      0.1848858663E-01
          0                 4           1             4    7     1      -0.6558627590E-05       4    7    1        -0.3757556060E-03      0.7561780470E-03

    ------------------------------------------------
       NWT REQUIRED            4 OUTER ITERATIONS 
       AND A TOTAL OF          7 INNER ITERATIONS.
    ------------------------------------------------

 NO OUTPUT CONTROL FOR STRESS PERIOD   11   TIME STEP   24
 
 SOLVING FOR HEAD 
                                                   Max.-Head-Change                         Max.-Flux-Residual
  Residual-Control   Outer-Iter.   Inner-Iter.     Column Row Layer    Maximum-Head-Change  Column Row Layer    Maximum-Flux-Residual          L2-NORM 
          0                 1           2             4    7     1       0.2451360732E-01       4    7    1         0.1292907996E+01      0.2603226118E+01
          0                 2           2             4    7     1      -0.2384517898E-02       4    7    1        -0.1292916343E+00      0.2603218283E+00
          0                 3           2             4    7     1       0.1623767082E-03       4    7    1         0.9050410428E-02      0.1822239635E-01
          0                 4           1             4    7     1      -0.6461121651E-05       4    7    1        -0.3701623355E-03      0.7452957964E-03

    ------------------------------------------------
       NWT REQUIRED            4 OUTER ITERATIONS 
       AND A TOTAL OF          7 INNER ITERATIONS.
    ------------------------------------------------

 NO OUTPUT CONTROL FOR STRESS PERIOD   11   TIME STEP   25
 
 SOLVING FOR HEAD 
                                                   Max.-Head-Change                         Max.-Flux-Residual
  Residual-Control   Outer-Iter.   Inner-Iter.     Column Row Layer    Maximum-Head-Change  Column Row Layer    Maximum-Flux-Residual          L2-NORM 
          0                 1           2             4    7     1       0.2414977165E-01       4    7    1         0.1273690413E+01      0.2566064444E+01
          0                 2           2             4    7     1      -0.2349126298E-02       4    7    1        -0.1273698552E+00      0.2566058700E+00
          0                 3           2             4    7     1       0.1599666745E-03       4    7    1         0.8915886018E-02      0.1796227695E-01
          0                 4           1             4    7     1      -0.6365224274E-05       4    7    1        -0.3646602868E-03      0.7346373477E-03

    ------------------------------------------------
       NWT REQUIRED            4 OUTER ITERATIONS 
       AND A TOTAL OF          7 INNER ITERATIONS.
    ------------------------------------------------

 NO OUTPUT CONTROL FOR STRESS PERIOD   11   TIME STEP   26
 
 SOLVING FOR HEAD 
                                                   Max.-Head-Change                         Max.-Flux-Residual
  Residual-Control   Outer-Iter.   Inner-Iter.     Column Row Layer    Maximum-Head-Change  Column Row Layer    Maximum-Flux-Residual          L2-NORM 
          0                 1           2             4    7     1       0.2379198713E-01       4    7    1         0.1254789262E+01      0.2529738710E+01
          0                 2           2             4    7     1      -0.2314323316E-02       4    7    1        -0.1254797195E+00      0.2529734456E+00
          0                 3           2             4    7     1       0.1575967231E-03       4    7    1         0.8783576647E-02      0.1770804039E-01
          0                 4           1             4    7     1      -0.6270921530E-05       4    7    1        -0.3592488129E-03      0.7242599203E-03

    ------------------------------------------------
       NWT REQUIRED            4 OUTER ITERATIONS 
       AND A TOTAL OF          7 INNER ITERATIONS.
    ------------------------------------------------

 NO OUTPUT CONTROL FOR STRESS PERIOD   11   TIME STEP   27
 
 SOLVING FOR HEAD 
                                                   Max.-Head-Change                         Max.-Flux-Residual
  Residual-Control   Outer-Iter.   Inner-Iter.     Column Row Layer    Maximum-Head-Change  Column Row Layer    Maximum-Flux-Residual          L2-NORM 
          0                 1           2             4    7     1       0.2344006180E-01       4    7    1         0.1236194515E+01      0.2494219014E+01
          0                 2           2             4    7     1      -0.2280090278E-02       4    7    1        -0.1236202247E+00      0.2494216198E+00
          0                 3           2             4    7     1       0.1552655832E-03       4    7    1         0.8653412153E-02      0.1745941251E-01
          0                 4           1             4    7     1      -0.6178163567E-05       4    7    1        -0.3539250774E-03      0.7294515264E-03

    ------------------------------------------------
       NWT REQUIRED            4 OUTER ITERATIONS 
       AND A TOTAL OF          7 INNER ITERATIONS.
    ------------------------------------------------

 NO OUTPUT CONTROL FOR STRESS PERIOD   11   TIME STEP   28
 
 SOLVING FOR HEAD 
                                                   Max.-Head-Change                         Max.-Flux-Residual
  Residual-Control   Outer-Iter.   Inner-Iter.     Column Row Layer    Maximum-Head-Change  Column Row Layer    Maximum-Flux-Residual          L2-NORM 
          0                 1           2             4    7     1       0.2309421371E-01       4    7    1         0.1217918231E+01      0.2459500703E+01
          0                 2           2             4    7     1      -0.2246448396E-02       4    7    1        -0.1217925765E+00      0.2459499155E+00
          0                 3           2             4    7     1       0.1529746985E-03       4    7    1         0.8525476896E-02      0.1721642614E-01
          0                 4           1             4    7     1      -0.6087006915E-05       4    7    1        -0.3486925261E-03      0.7041555751E-03

    ------------------------------------------------
       NWT REQUIRED            4 OUTER ITERATIONS 
       AND A TOTAL OF          7 INNER ITERATIONS.
    ------------------------------------------------

 NO OUTPUT CONTROL FOR STRESS PERIOD   11   TIME STEP   29
 
 SOLVING FOR HEAD 
                                                   Max.-Head-Change                         Max.-Flux-Residual
  Residual-Control   Outer-Iter.   Inner-Iter.     Column Row Layer    Maximum-Head-Change  Column Row Layer    Maximum-Flux-Residual          L2-NORM 
          0                 1           2             4    7     1       0.2275409974E-01       4    7    1         0.1199942367E+01      0.2425534038E+01
          0                 2           2             4    7     1      -0.2213364294E-02       4    7    1        -0.1199949707E+00      0.2425548055E+00
          0                 3           2             4    7     1       0.1507217968E-03       4    7    1         0.8399644641E-02      0.1698092276E-01
          0                 4           1             4    7     1      -0.5997362118E-05       4    7    1        -0.3435459803E-03      0.6944977444E-03

    ------------------------------------------------
       NWT REQUIRED            4 OUTER ITERATIONS 
       AND A TOTAL OF          7 INNER ITERATIONS.
    ------------------------------------------------

 NO OUTPUT CONTROL FOR STRESS PERIOD   11   TIME STEP   30



 STREAM LISTING     PERIOD     11   STEP       30

 LAYER ROW COL. STREAM  RCH.  FLOW INTO     FLOW TO   FLOW OUT OF   OVRLND.     DIRECT     STREAM       STREAM     STREAM     STREAM   STREAMBED  STREAMBED
                SEG.NO.  NO.  STRM. RCH.    AQUIFER    STRM. RCH.    RUNOFF     PRECIP       ET          HEAD       DEPTH      WIDTH   CONDCTNC.   GRADIENT

   1    1    1     1     1    1.3125E+01  1.7336E-01   1.2952E+01  0.000E+00  0.000E+00  0.000E+00  1.09402E+03  9.718E-01  9.699E+00  4.365E-02  1.324E+00
   1    2    2     1     2    1.2952E+01  2.6707E-01   1.2684E+01  0.000E+00  0.000E+00  0.000E+00  1.08903E+03  9.671E-01  9.617E+00  6.732E-02  1.322E+00
   1    3    3     1     3    1.2684E+01  2.2641E-01   1.2458E+01  0.000E+00  0.000E+00  0.000E+00  1.08338E+03  9.616E-01  9.525E+00  5.715E-02  1.321E+00
   1    3    4     1     4    1.2458E+01  2.0737E-01   1.2251E+01  0.000E+00  0.000E+00  0.000E+00  1.07836E+03  9.568E-01  9.443E+00  5.241E-02  1.319E+00
   1    4    5     2     1    1.0251E+01  2.8870E-01   9.9620E+00  0.000E+00  0.000E+00  0.000E+00  1.07264E+03  7.013E-01  1.200E+01  7.800E-02  1.234E+00
   1    5    6     2     2    9.9620E+00  2.2144E-01   9.7406E+00  0.000E+00  0.000E+00  0.000E+00  1.06720E+03  6.906E-01  1.200E+01  6.000E-02  1.230E+00
   1    6    6     2     3    9.7406E+00  2.2088E-01   9.5197E+00  0.000E+00  0.000E+00  0.000E+00  1.06247E+03  6.813E-01  1.200E+01  6.000E-02  1.227E+00
   1    7    6     2     4    9.5197E+00  2.2031E-01   9.2994E+00  0.000E+00  0.000E+00  0.000E+00  1.05775E+03  6.719E-01  1.200E+01  6.000E-02  1.224E+00
   1    8    6     2     5    9.2994E+00  2.1974E-01   9.0796E+00  0.000E+00  0.000E+00  0.000E+00  1.05302E+03  6.624E-01  1.200E+01  6.000E-02  1.221E+00
   1    3    5     3     1    2.0000E+00  2.8252E-01   1.7175E+00  0.000E+00  0.000E+00  0.000E+00  1.07555E+03  1.909E+00  9.636E+00  7.227E-02  1.955E+00
   1    3    6     3     2    1.7175E+00  2.4905E-01   1.4684E+00  0.000E+00  0.000E+00  0.000E+00  1.07264E+03  1.727E+00  8.909E+00  6.682E-02  1.864E+00
   1    3    7     3     3    1.4684E+00  1.9718E-01   1.2712E+00  0.000E+00  0.000E+00  0.000E+00  1.06987E+03  1.555E+00  8.218E+00  5.547E-02  1.777E+00
   1    4    8     3     4    1.2712E+00  2.2567E-01   1.0456E+00  0.000E+00  0.000E+00  0.000E+00  1.06682E+03  1.364E+00  7.455E+00  6.709E-02  1.682E+00
   1    5    8     3     5    1.0456E+00  1.5790E-01   8.8768E-01  0.000E+00  0.000E+00  0.000E+00  1.06362E+03  1.164E+00  6.655E+00  4.991E-02  1.582E+00
   1    6    8     3     6    8.8768E-01  5.5980E-02   8.3170E-01  0.000E+00  0.000E+00  0.000E+00  1.06158E+03  1.036E+00  6.145E+00  1.844E-02  1.518E+00
   1    5   10     4     1    1.0000E+01  9.0919E-02   9.9091E+00  0.000E+00  0.000E+00  0.000E+00  1.07836E+03  6.368E-01  1.000E+01  2.500E-02  1.212E+00
   1    5    9     4     2    9.9091E+00  1.8158E-01   9.7275E+00  0.000E+00  0.000E+00  0.000E+00  1.07154E+03  6.315E-01  1.000E+01  5.000E-02  1.211E+00
   1    6    8     4     3    9.7275E+00  1.2689E-01   9.6006E+00  0.000E+00  0.000E+00  0.000E+00  1.06381E+03  6.256E-01  1.000E+01  3.500E-02  1.209E+00
   1    6    8     5     1    1.0432E+01  2.2686E-01   1.0205E+01  0.000E+00  0.000E+00  0.000E+00  1.05868E+03  6.790E-01  1.542E+01  6.166E-02  1.226E+00
   1    7    7     5     2    1.0205E+01  2.7894E-01   9.9265E+00  0.000E+00  0.000E+00  0.000E+00  1.05417E+03  6.732E-01  1.519E+01  7.594E-02  1.224E+00
   1    8    7     5     3    9.9265E+00  1.9221E-01   9.7343E+00  0.000E+00  0.000E+00  0.000E+00  1.04992E+03  6.676E-01  1.497E+01  5.241E-02  1.223E+00
   1    8    6     5     4    9.7343E+00  1.3577E-01   9.5985E+00  0.000E+00  0.000E+00  0.000E+00  1.04691E+03  6.637E-01  1.482E+01  3.706E-02  1.221E+00
   1    9    6     6     1    1.8678E+01  2.4127E-01   1.8437E+01  0.000E+00  0.000E+00  0.000E+00  1.04375E+03  1.021E+00  1.200E+01  6.000E-02  1.340E+00
   1   10    7     6     2    1.8437E+01  2.4079E-01   1.8196E+01  0.000E+00  0.000E+00  0.000E+00  1.03919E+03  1.013E+00  1.200E+01  6.000E-02  1.338E+00
   1   11    7     6     3    1.8196E+01  2.4031E-01   1.7956E+01  0.000E+00  0.000E+00  0.000E+00  1.03464E+03  1.005E+00  1.200E+01  6.000E-02  1.335E+00
   1   12    7     6     4    1.7956E+01  2.3983E-01   1.7716E+01  0.000E+00  0.000E+00  0.000E+00  1.03009E+03  9.971E-01  1.200E+01  6.000E-02  1.332E+00
   1   13    7     6     5    1.7716E+01  1.4130E-03   1.7715E+01  0.000E+00  0.000E+00  0.000E+00  1.02690E+03  9.931E-01  1.200E+01  2.400E-02  1.963E-02
   1   14    9     7     1    1.5000E+02  1.3690E+00   1.4863E+02  0.000E+00  0.000E+00  0.000E+00  1.03987E+03  2.288E+00  5.529E+01  5.593E-01  8.159E-01
   1   13    8     7     2    1.4863E+02  1.9191E+00   1.4671E+02  0.000E+00  0.000E+00  0.000E+00  1.03478E+03  2.279E+00  5.526E+01  6.148E-01  1.041E+00
   1   13    7     7     3    1.4671E+02  1.5890E+00   1.4512E+02  0.000E+00  0.000E+00  0.000E+00  1.02969E+03  2.270E+00  5.521E+01  5.584E-01  9.485E-01
   1   13    6     8     1    1.6284E+02  9.9119E-01   1.6185E+02  0.000E+00  0.000E+00  0.000E+00  1.02478E+03  2.902E+00  4.207E+01  4.287E-01  7.706E-01
   1   13    5     8     2    1.6185E+02  2.3914E-01   1.6161E+02  0.000E+00  0.000E+00  0.000E+00  1.01852E+03  2.897E+00  4.201E+01  4.281E-01  1.862E-01
   1   13    4     8     3    1.6161E+02 -2.2251E+00   1.6383E+02  0.000E+00  0.000E+00  0.000E+00  1.01228E+03  2.904E+00  4.211E+01  4.291E+00 -1.728E-01
   1   13    3     8     4    1.6383E+02 -3.5315E+00   1.6736E+02  0.000E+00  0.000E+00  0.000E+00  1.00605E+03  2.923E+00  4.239E+01  4.319E+00 -2.725E-01
   1   13    2     8     5    1.6736E+02 -2.5286E+00   1.6989E+02  0.000E+00  0.000E+00  0.000E+00  9.99818E+02  2.943E+00  4.268E+01  4.349E+00 -1.938E-01
   1   13    1     8     6    1.6989E+02 -1.9472E+00   1.7184E+02  0.000E+00  0.000E+00  0.000E+00  9.94833E+02  2.958E+00  4.289E+01  2.622E+00 -2.475E-01
   1    8    6     9     1    0.0000E+00  0.0000E+00   0.0000E+00  0.000E+00  0.000E+00  0.000E+00  1.07875E+03  0.000E+00  4.000E+00  0.000E+00  1.000E+00
   1    8    5     9     2    0.0000E+00  0.0000E+00   0.0000E+00  0.000E+00  0.000E+00  0.000E+00  1.07825E+03  0.000E+00  4.000E+00  0.000E+00  1.000E+00





UNSATURATED ZONE PACKAGE VOLUMETRIC BUDGET FOR  TIME STEP    30 STRESS PERIOD   11
  ------------------------------------------------------------------------------



     CUMULATIVE VOLUMES      L**3       RATES FOR THIS TIME STEP      L**3/T
     ------------------                 ------------------------

           IN:                                      IN:
           ---                                      ---
        INFILTRATION =   515658391.6775          INFILTRATION =           4.4075

          OUT:                                     OUT:
          ----                                     ----
              UZF ET =   493733758.0654                UZF ET =           3.7809
        UZF RECHARGE =       73224.0000          UZF RECHARGE =       0.0000E+00

            IN - OUT =    21851409.6121              IN - OUT =           0.6266

          STORAGE:                                 STORAGE:
          --------                                 --------
      STORAGE CHANGE =    21851402.8357        STORAGE CHANGE =           0.6266

 PERCENT DISCREPANCY IS DIFFERENCE BETWEEN IN-OUT MINUS CHANGE IN STORAGE
 DIVIDED BY THE AVERAGE OF IN AND OUT TIMES 100

 PERCENT DISCREPANCY =           0.00     PERCENT DISCREPANCY =           0.00






1
  VOLUMETRIC BUDGET FOR AGRICULTURAL FIELDS AT  END OF TIME STEP   30, STRESS PERIOD  11
  ------------------------------------------------------------------------------

     CUMULATIVE VOLUMES      L**3       RATES FOR THIS TIME STEP      L**3/T
     ------------------                 ------------------------

           IN:                                      IN:
           ---                                      ---
               AG WELLS  =   174751168.0000                 AG WELLS  =           0.0000
      DIVERSION SEGMENTS =   224912208.0000        DIVERSION SEGMENTS =           0.0000
           GW IRRIGATION =           0.0000             GW IRRIGATION =           0.0000
           SW IRRIGATION =           0.0000             SW IRRIGATION =           0.0000
        SYSTEM LOSSES GW =           0.0000          SYSTEM LOSSES GW =           0.0000
        SYSTEM LOSSES SW =           0.0000          SYSTEM LOSSES SW =           0.0000

                TOTAL IN =   399663360.0000                  TOTAL IN =           0.0000

          OUT:                                     OUT:
          ----                                     ----
               AG WELLS  =           0.0000                 AG WELLS  =           0.0000
      DIVERSION SEGMENTS =           0.0000        DIVERSION SEGMENTS =           0.0000
           GW IRRIGATION =   174751168.0000             GW IRRIGATION =           0.0000
           SW IRRIGATION =   224916624.0000             SW IRRIGATION =           0.0000
        SYSTEM LOSSES GW =           0.0000          SYSTEM LOSSES GW =           0.0000
        SYSTEM LOSSES SW =           0.0000          SYSTEM LOSSES SW =           0.0000

               TOTAL OUT =   399667776.0000                 TOTAL OUT =           0.0000

                IN - OUT =       -4416.0000                  IN - OUT =           0.0000

     PERCENT DISCREPANCY =          -0.00         PERCENT DISCREPANCY =           0.00



1
  VOLUMETRIC BUDGET FOR ENTIRE MODEL AT END OF TIME STEP   30, STRESS PERIOD  11
  ------------------------------------------------------------------------------

     CUMULATIVE VOLUMES      L**3       RATES FOR THIS TIME STEP      L**3/T
     ------------------                 ------------------------

           IN:                                      IN:
           ---                                      ---
             STORAGE     =   229752784.0000               STORAGE     =           5.3534
       CONSTANT HEAD     =           0.0000         CONSTANT HEAD     =           0.0000
     HEAD DEP BOUNDS     =     7597056.5000       HEAD DEP BOUNDS     =           0.2880
      STREAM LEAKAGE     =   311326688.0000        STREAM LEAKAGE     =          11.5178
        UZF RECHARGE     =       73223.9531          UZF RECHARGE     =           0.0000
               GW ET     =           0.0000                 GW ET     =           0.0000
     SURFACE LEAKAGE     =           0.0000       SURFACE LEAKAGE     =           0.0000
           AG WELLS      =           0.0000             AG WELLS      =           0.0000

                TOTAL IN =   548749760.0000                  TOTAL IN =          17.1593

          OUT:                                     OUT:
          ----                                     ----
             STORAGE     =    93612624.0000               STORAGE     =           6.6390
       CONSTANT HEAD     =           0.0000         CONSTANT HEAD     =           0.0000
     HEAD DEP BOUNDS     =     7599148.5000       HEAD DEP BOUNDS     =           0.2879
      STREAM LEAKAGE     =   272768608.0000        STREAM LEAKAGE     =          10.2324
        UZF RECHARGE     =           0.0000          UZF RECHARGE     =           0.0000
               GW ET     =           0.0000                 GW ET     =           0.0000
     SURFACE LEAKAGE     =           0.0000       SURFACE LEAKAGE     =           0.0000
           AG WELLS      =   174751168.0000             AG WELLS      =           0.0000

               TOTAL OUT =   548731520.0000                 TOTAL OUT =          17.1592

                IN - OUT =       18240.0000                  IN - OUT =       9.5367E-06

     PERCENT DISCREPANCY =           0.00         PERCENT DISCREPANCY =           0.00






         TIME SUMMARY AT END OF TIME STEP   30 IN STRESS PERIOD   11
                    SECONDS     MINUTES      HOURS       DAYS        YEARS
                    -----------------------------------------------------------
   TIME STEP LENGTH  87667.      1461.1      24.352      1.0147     2.77799E-03
 STRESS PERIOD TIME 2.63000E+06  43833.      730.56      30.440     8.33397E-02
         TOTAL TIME 2.63864E+07 4.39773E+05  7329.5      305.40     0.83613    
1
1
                            STRESS PERIOD NO.   12, LENGTH =   2630000.    
                            -----------------------------------------------

                              NUMBER OF TIME STEPS =    30

                               MULTIPLIER FOR DELT =     1.000

                            INITIAL TIME STEP SIZE =   87666.66    

 REUSING NON-PARAMETER GHB CELLS FROM LAST STRESS PERIOD

      2 GHB CELLS

 REUSING STREAM SEGMENT DATA FROM LAST STRESS PERIOD



            AREAL INFILTRATION RATE
 READING ON UNIT   19 WITH FORMAT: (10F4.0)            

            1           2           3           4           5           6           7           8           9          10
 ........................................................................................................................
   1   1.2000E-09   0.000       0.000       0.000       0.000       0.000       0.000       0.000       0.000       0.000    
   2   2.1000E-09  2.0000E-09  8.0000E-10  8.5000E-09   0.000       0.000       0.000       0.000       0.000       0.000    
   3   5.0000E-10  1.1000E-09  8.8000E-09  5.5000E-09   0.000       0.000       0.000       0.000       0.000       0.000    
   4   8.5000E-09  1.1000E-09  1.1000E-09  1.1000E-09  2.0000E-09   0.000       0.000       0.000       0.000       0.000    
   5   8.5000E-09  1.1000E-09  1.1000E-09  1.1000E-09  1.1000E-09   0.000       0.000       0.000       0.000       0.000    
   6   8.5000E-09  5.2000E-09  2.1000E-09  1.1000E-09  1.5000E-09   0.000       0.000       0.000       0.000       0.000    
   7   8.5000E-09  5.2000E-09  2.1000E-09  1.2000E-09  2.0000E-09   0.000       0.000       0.000       0.000       0.000    
   8   5.0000E-10  5.2000E-09  2.1000E-09  1.2000E-09  5.0000E-09   0.000       0.000       0.000       0.000       0.000    
   9   5.0000E-10  5.2000E-09  2.1000E-09  1.2000E-09  5.0000E-09   0.000       0.000       0.000       0.000       0.000    
  10   5.0000E-10  5.2000E-09  2.1000E-09  1.2000E-09  5.8000E-09   0.000       0.000       0.000       0.000       0.000    
  11   1.0000E-10  1.1000E-09  1.1000E-09  1.2000E-09  5.0000E-09   0.000       0.000       0.000       0.000       0.000    
  12   1.1000E-09  1.1000E-09  1.1000E-09  1.1000E-09  2.0000E-09   0.000       0.000       0.000       0.000       0.000    
  13   1.1000E-09  2.2000E-09  2.2000E-09  2.1000E-09  1.0000E-09   0.000       0.000       0.000       0.000       0.000    
  14   2.0000E-10  5.5000E-09  5.5000E-09  5.2000E-09  1.0000E-09   0.000       0.000       0.000       0.000       0.000    
  15    0.000      8.8000E-09  8.8000E-09   0.000       0.000       0.000       0.000       0.000       0.000       0.000    

                  ET RATE =  5.000000E-10

 USING ET EXTINCTION DEPTH FROM PREVIOUS STRESS PERIOD. CURRENT PERIOD IS:      12

 USING EXTINCTION WATER CONTENT FROM PREVIOUS STRESS PERIOD. CURRENT PERIOD IS:      12

 USING AIR ENTRY PRESSURE FROM PREVIOUS STRESS PERIOD. CURRENT PERIOD IS:      12

 USING ROOT PRESSURE HEAD FROM PREVIOUS STRESS PERIOD. CURRENT PERIOD IS:      12

 USING ROOT ACTIVITY FROM PREVIOUS STRESS PERIOD. CURRENT PERIOD IS:      12

 PROCESSING AG STRESS PERIOD DATA

 READING AG STRESS PERIOD DATA

 READING IRRIGATION SEGMENT

 READING IRRIGATION WELL

 READING SUPPLEMENTAL WELL

 END PROCESSING AG STRESS PERIOD DATA OPTIONS
 
 SOLVING FOR HEAD 
                                                   Max.-Head-Change                         Max.-Flux-Residual
  Residual-Control   Outer-Iter.   Inner-Iter.     Column Row Layer    Maximum-Head-Change  Column Row Layer    Maximum-Flux-Residual          L2-NORM 
          0                 1           2             4    7     1       0.2241962629E-01       4    7    1         0.1182263807E+01      0.2397055684E+01
          0                 2           2             4    7     1      -0.2180828866E-02       4    7    1        -0.1182270957E+00      0.2398501051E+00
          0                 3           2             4    7     1       0.1485062575E-03       4    7    1         0.8275893518E-02      0.1678889939E-01
          0                 4           1             4    7     1      -0.5909203504E-05       4    7    1        -0.3384845481E-03      0.6866012601E-03

    ------------------------------------------------
       NWT REQUIRED            4 OUTER ITERATIONS 
       AND A TOTAL OF          7 INNER ITERATIONS.
    ------------------------------------------------

 NO OUTPUT CONTROL FOR STRESS PERIOD   12   TIME STEP    1
 
 SOLVING FOR HEAD 
                                                   Max.-Head-Change                         Max.-Flux-Residual
  Residual-Control   Outer-Iter.   Inner-Iter.     Column Row Layer    Maximum-Head-Change  Column Row Layer    Maximum-Flux-Residual          L2-NORM 
          0                 1           2             4    7     1       0.2209099255E-01       4    7    1         0.1164892375E+01      0.2365838105E+01
          0                 2           2             4    7     1      -0.2148861489E-02       4    7    1        -0.1164899339E+00      0.2365741593E+00
          0                 3           2             4    7     1       0.1463294002E-03       4    7    1         0.8154292309E-02      0.1655918166E-01
          0                 4           1             4    7     1      -0.5822583915E-05       4    7    1        -0.3335110382E-03      0.6772134787E-03

    ------------------------------------------------
       NWT REQUIRED            4 OUTER ITERATIONS 
       AND A TOTAL OF          7 INNER ITERATIONS.
    ------------------------------------------------

 NO OUTPUT CONTROL FOR STRESS PERIOD   12   TIME STEP    2
 
 SOLVING FOR HEAD 
                                                   Max.-Head-Change                         Max.-Flux-Residual
  Residual-Control   Outer-Iter.   Inner-Iter.     Column Row Layer    Maximum-Head-Change  Column Row Layer    Maximum-Flux-Residual          L2-NORM 
          0                 1           2             4    7     1       0.2176798654E-01       4    7    1         0.1147816383E+01      0.2333659432E+01
          0                 2           2             4    7     1      -0.2117441543E-02       4    7    1        -0.1147823166E+00      0.2333571025E+00
          0                 3           2             4    7     1       0.1441898210E-03       4    7    1         0.8034759215E-02      0.1633418385E-01
          0                 4           1             4    7     1      -0.5737448090E-05       4    7    1        -0.3286221349E-03      0.6684343602E-03

    ------------------------------------------------
       NWT REQUIRED            4 OUTER ITERATIONS 
       AND A TOTAL OF          7 INNER ITERATIONS.
    ------------------------------------------------

 NO OUTPUT CONTROL FOR STRESS PERIOD   12   TIME STEP    3
 
 SOLVING FOR HEAD 
                                                   Max.-Head-Change                         Max.-Flux-Residual
  Residual-Control   Outer-Iter.   Inner-Iter.     Column Row Layer    Maximum-Head-Change  Column Row Layer    Maximum-Flux-Residual          L2-NORM 
          0                 1           2             4    7     1       0.2145066725E-01       4    7    1         0.1131039519E+01      0.2302200988E+01
          0                 2           2             4    7     1      -0.2086574766E-02       4    7    1        -0.1131046124E+00      0.2302124396E+00
          0                 3           2             4    7     1       0.1420879108E-03       4    7    1         0.7917320050E-02      0.1611412727E-01
          0                 4           1             4    7     1      -0.5653811458E-05       4    7    1        -0.3238188779E-03      0.6590090902E-03

    ------------------------------------------------
       NWT REQUIRED            4 OUTER ITERATIONS 
       AND A TOTAL OF          7 INNER ITERATIONS.
    ------------------------------------------------

 NO OUTPUT CONTROL FOR STRESS PERIOD   12   TIME STEP    4
 
 SOLVING FOR HEAD 
                                                   Max.-Head-Change                         Max.-Flux-Residual
  Residual-Control   Outer-Iter.   Inner-Iter.     Column Row Layer    Maximum-Head-Change  Column Row Layer    Maximum-Flux-Residual          L2-NORM 
          0                 1           2             4    7     1       0.2113868215E-01       4    7    1         0.1114542824E+01      0.2271427025E+01
          0                 2           2             4    7     1      -0.2056226866E-02       4    7    1        -0.1114549255E+00      0.2271360582E+00
          0                 3           2             4    7     1       0.1400213335E-03       4    7    1         0.7801842060E-02      0.1589882802E-01
          0                 4           1             4    7     1      -0.5571580303E-05       4    7    1        -0.3190958164E-03      0.6501913362E-03

    ------------------------------------------------
       NWT REQUIRED            4 OUTER ITERATIONS 
       AND A TOTAL OF          7 INNER ITERATIONS.
    ------------------------------------------------

 NO OUTPUT CONTROL FOR STRESS PERIOD   12   TIME STEP    5
 
 SOLVING FOR HEAD 
                                                   Max.-Head-Change                         Max.-Flux-Residual
  Residual-Control   Outer-Iter.   Inner-Iter.     Column Row Layer    Maximum-Head-Change  Column Row Layer    Maximum-Flux-Residual          L2-NORM 
          0                 1           2             4    7     1       0.2083223032E-01       4    7    1         0.1098337376E+01      0.2241319688E+01
          0                 2           2             4    7     1      -0.2026417208E-02       4    7    1        -0.1098343638E+00      0.2241261501E+00
          0                 3           2             4    7     1       0.1379914089E-03       4    7    1         0.7688402858E-02      0.1568827788E-01
          0                 4           1             4    7     1      -0.5490807814E-05       4    7    1        -0.3144561479E-03      0.6416257262E-03

    ------------------------------------------------
       NWT REQUIRED            4 OUTER ITERATIONS 
       AND A TOTAL OF          7 INNER ITERATIONS.
    ------------------------------------------------

 NO OUTPUT CONTROL FOR STRESS PERIOD   12   TIME STEP    6
 
 SOLVING FOR HEAD 
                                                   Max.-Head-Change                         Max.-Flux-Residual
  Residual-Control   Outer-Iter.   Inner-Iter.     Column Row Layer    Maximum-Head-Change  Column Row Layer    Maximum-Flux-Residual          L2-NORM 
          0                 1           2             4    7     1       0.2053108902E-01       4    7    1         0.1082411480E+01      0.2211853385E+01
          0                 2           2             4    7     1      -0.1997124126E-02       4    7    1        -0.1082417576E+00      0.2211801496E+00
          0                 3           2             4    7     1       0.1359966611E-03       4    7    1         0.7576920535E-02      0.1548205544E-01
          0                 4           1             4    7     1      -0.5411435047E-05       4    7    1        -0.3098965149E-03      0.6331615437E-03

    ------------------------------------------------
       NWT REQUIRED            4 OUTER ITERATIONS 
       AND A TOTAL OF          7 INNER ITERATIONS.
    ------------------------------------------------

 NO OUTPUT CONTROL FOR STRESS PERIOD   12   TIME STEP    7
 
 SOLVING FOR HEAD 
                                                   Max.-Head-Change                         Max.-Flux-Residual
  Residual-Control   Outer-Iter.   Inner-Iter.     Column Row Layer    Maximum-Head-Change  Column Row Layer    Maximum-Flux-Residual          L2-NORM 
          0                 1           2             4    7     1       0.2023531415E-01       4    7    1         0.1066768267E+01      0.2183012511E+01
          0                 2           2             4    7     1      -0.1968353058E-02       4    7    1        -0.1066774201E+00      0.2182967382E+00
          0                 3           2             4    7     1       0.1340374601E-03       4    7    1         0.7467417016E-02      0.1528032465E-01
          0                 4           1             4    7     1      -0.5333476393E-05       4    7    1        -0.3054178092E-03      0.6249405914E-03

    ------------------------------------------------
       NWT REQUIRED            4 OUTER ITERATIONS 
       AND A TOTAL OF          7 INNER ITERATIONS.
    ------------------------------------------------

 NO OUTPUT CONTROL FOR STRESS PERIOD   12   TIME STEP    8
 
 SOLVING FOR HEAD 
                                                   Max.-Head-Change                         Max.-Flux-Residual
  Residual-Control   Outer-Iter.   Inner-Iter.     Column Row Layer    Maximum-Head-Change  Column Row Layer    Maximum-Flux-Residual          L2-NORM 
          0                 1           2             4    7     1       0.1994468097E-01       4    7    1         0.1051395954E+01      0.2154766589E+01
          0                 2           2             4    7     1      -0.1940082141E-02       4    7    1        -0.1051401731E+00      0.2154726798E+00
          0                 3           1             4    7     1       0.1321123191E-03       4    7    1         0.7359809827E-02      0.1508268376E-01
          0                 4           1             4    7     1      -0.5256874402E-05       4    7    1        -0.3010166643E-03      0.6168250473E-03

    ------------------------------------------------
       NWT REQUIRED            4 OUTER ITERATIONS 
       AND A TOTAL OF          6 INNER ITERATIONS.
    ------------------------------------------------

 NO OUTPUT CONTROL FOR STRESS PERIOD   12   TIME STEP    9
 
 SOLVING FOR HEAD 
                                                   Max.-Head-Change                         Max.-Flux-Residual
  Residual-Control   Outer-Iter.   Inner-Iter.     Column Row Layer    Maximum-Head-Change  Column Row Layer    Maximum-Flux-Residual          L2-NORM 
          0                 1           2             4    7     1       0.1965924056E-01       4    7    1         0.1036297570E+01      0.2127107422E+01
          0                 2           2             4    7     1      -0.1912316346E-02       4    7    1        -0.1036303194E+00      0.2127072373E+00
          0                 3           1             4    7     1       0.1302215736E-03       4    7    1         0.7254120162E-02      0.1488915401E-01
          0                 4           1             4    7     1      -0.5181639897E-05       4    7    1        -0.2966939501E-03      0.6089502485E-03

    ------------------------------------------------
       NWT REQUIRED            4 OUTER ITERATIONS 
       AND A TOTAL OF          6 INNER ITERATIONS.
    ------------------------------------------------

 NO OUTPUT CONTROL FOR STRESS PERIOD   12   TIME STEP   10
 
 SOLVING FOR HEAD 
                                                   Max.-Head-Change                         Max.-Flux-Residual
  Residual-Control   Outer-Iter.   Inner-Iter.     Column Row Layer    Maximum-Head-Change  Column Row Layer    Maximum-Flux-Residual          L2-NORM 
          0                 1           2             4    7     1       0.1937890560E-01       4    7    1         0.1021468424E+01      0.2100008806E+01
          0                 2           2             4    7     1      -0.1885047177E-02       4    7    1        -0.1021473898E+00      0.2099977361E+00
          0                 3           1             4    7     1       0.1283646464E-03       4    7    1         0.7150315194E-02      0.1469954483E-01
          0                 4           1             4    7     1      -0.5107750888E-05       4    7    1        -0.2924483128E-03      0.6012245614E-03

    ------------------------------------------------
       NWT REQUIRED            4 OUTER ITERATIONS 
       AND A TOTAL OF          6 INNER ITERATIONS.
    ------------------------------------------------

 NO OUTPUT CONTROL FOR STRESS PERIOD   12   TIME STEP   11
 
 SOLVING FOR HEAD 
                                                   Max.-Head-Change                         Max.-Flux-Residual
  Residual-Control   Outer-Iter.   Inner-Iter.     Column Row Layer    Maximum-Head-Change  Column Row Layer    Maximum-Flux-Residual          L2-NORM 
          0                 1           2             4    7     1       0.1910358800E-01       4    7    1         0.1006903987E+01      0.2073464653E+01
          0                 2           2             4    7     1      -0.1858266066E-02       4    7    1        -0.1006909315E+00      0.2073436969E+00
          0                 3           1             4    7     1       0.1265409546E-03       4    7    1         0.7048363217E-02      0.1451378323E-01
          0                 4           1             4    7     1      -0.5035184810E-05       4    7    1        -0.2882784870E-03      0.5936013662E-03

    ------------------------------------------------
       NWT REQUIRED            4 OUTER ITERATIONS 
       AND A TOTAL OF          6 INNER ITERATIONS.
    ------------------------------------------------

 NO OUTPUT CONTROL FOR STRESS PERIOD   12   TIME STEP   12
 
 SOLVING FOR HEAD 
                                                   Max.-Head-Change                         Max.-Flux-Residual
  Residual-Control   Outer-Iter.   Inner-Iter.     Column Row Layer    Maximum-Head-Change  Column Row Layer    Maximum-Flux-Residual          L2-NORM 
          0                 1           2             4    7     1       0.1883306071E-01       4    7    1         0.9925923518E+00      0.2047445555E+01
          0                 2           2             4    7     1      -0.1831950928E-02       4    7    1        -0.9925975376E-01      0.2047421092E+00
          0                 3           1             4    7     1       0.1247489933E-03       4    7    1         0.6948180867E-02      0.1433169699E-01
          0                 4           1             4    7     1      -0.4963880876E-05       4    7    1        -0.2841810228E-03      0.5861618506E-03

    ------------------------------------------------
       NWT REQUIRED            4 OUTER ITERATIONS 
       AND A TOTAL OF          6 INNER ITERATIONS.
    ------------------------------------------------

 NO OUTPUT CONTROL FOR STRESS PERIOD   12   TIME STEP   13
 
 SOLVING FOR HEAD 
                                                   Max.-Head-Change                         Max.-Flux-Residual
  Residual-Control   Outer-Iter.   Inner-Iter.     Column Row Layer    Maximum-Head-Change  Column Row Layer    Maximum-Flux-Residual          L2-NORM 
          0                 1           2             4    7     1       0.1856751325E-01       4    7    1         0.9785437704E+00      0.2021951980E+01
          0                 2           2             4    7     1      -0.1806120196E-02       4    7    1        -0.9785488180E-01      0.2021929982E+00
          0                 3           1             4    7     1       0.1229900179E-03       4    7    1         0.6849839905E-02      0.1415328694E-01
          0                 4           1             4    7     1      -0.4893889512E-05       4    7    1        -0.2801588530E-03      0.5788710418E-03

    ------------------------------------------------
       NWT REQUIRED            4 OUTER ITERATIONS 
       AND A TOTAL OF          6 INNER ITERATIONS.
    ------------------------------------------------

 NO OUTPUT CONTROL FOR STRESS PERIOD   12   TIME STEP   14
 
 SOLVING FOR HEAD 
                                                   Max.-Head-Change                         Max.-Flux-Residual
  Residual-Control   Outer-Iter.   Inner-Iter.     Column Row Layer    Maximum-Head-Change  Column Row Layer    Maximum-Flux-Residual          L2-NORM 
          0                 1           2             4    7     1       0.1830671131E-01       4    7    1         0.9647460436E+00      0.1996951079E+01
          0                 2           2             4    7     1      -0.1780751080E-02       4    7    1        -0.9647509565E-01      0.1996931339E+00
          0                 3           1             4    7     1       0.1212624776E-03       4    7    1         0.6753254971E-02      0.1397831532E-01
          0                 4           1             4    7     1      -0.4825149470E-05       4    7    1        -0.2762085464E-03      0.5717081264E-03

    ------------------------------------------------
       NWT REQUIRED            4 OUTER ITERATIONS 
       AND A TOTAL OF          6 INNER ITERATIONS.
    ------------------------------------------------

 NO OUTPUT CONTROL FOR STRESS PERIOD   12   TIME STEP   15
 
 SOLVING FOR HEAD 
                                                   Max.-Head-Change                         Max.-Flux-Residual
  Residual-Control   Outer-Iter.   Inner-Iter.     Column Row Layer    Maximum-Head-Change  Column Row Layer    Maximum-Flux-Residual          L2-NORM 
          0                 1           2             4    7     1       0.1805043504E-01       4    7    1         0.9511870225E+00      0.1972440275E+01
          0                 2           2             4    7     1      -0.1755822193E-02       4    7    1        -0.9511918040E-01      0.1972412580E+00
          0                 3           1             4    7     1       0.1195649142E-03       4    7    1         0.6658340975E-02      0.1380669691E-01
          0                 4           1             4    7     1      -0.4757601343E-05       4    7    1        -0.2723265343E-03      0.5646887157E-03

    ------------------------------------------------
       NWT REQUIRED            4 OUTER ITERATIONS 
       AND A TOTAL OF          6 INNER ITERATIONS.
    ------------------------------------------------

 NO OUTPUT CONTROL FOR STRESS PERIOD   12   TIME STEP   16
 
 SOLVING FOR HEAD 
                                                   Max.-Head-Change                         Max.-Flux-Residual
  Residual-Control   Outer-Iter.   Inner-Iter.     Column Row Layer    Maximum-Head-Change  Column Row Layer    Maximum-Flux-Residual          L2-NORM 
          0                 1           2             4    7     1       0.1779887222E-01       4    7    1         0.9378773357E+00      0.1948403622E+01
          0                 2           2             4    7     1      -0.1731351802E-02       4    7    1        -0.9378819899E-01      0.1948387636E+00
          0                 3           1             4    7     1       0.1178985735E-03       4    7    1         0.6565172362E-02      0.1363853493E-01
          0                 4           1             4    7     1      -0.4691296480E-05       4    7    1        -0.2685159548E-03      0.5578010023E-03

    ------------------------------------------------
       NWT REQUIRED            4 OUTER ITERATIONS 
       AND A TOTAL OF          6 INNER ITERATIONS.
    ------------------------------------------------

 NO OUTPUT CONTROL FOR STRESS PERIOD   12   TIME STEP   17
 
 SOLVING FOR HEAD 
                                                   Max.-Head-Change                         Max.-Flux-Residual
  Residual-Control   Outer-Iter.   Inner-Iter.     Column Row Layer    Maximum-Head-Change  Column Row Layer    Maximum-Flux-Residual          L2-NORM 
          0                 1           2             4    7     1       0.1755179209E-01       4    7    1         0.9248046917E+00      0.1924829876E+01
          0                 2           2             4    7     1      -0.1707317703E-02       4    7    1        -0.9248092215E-01      0.1924973582E+00
          0                 3           1             4    7     1       0.1162619420E-03       4    7    1         0.6473663055E-02      0.1347473476E-01
          0                 4           1             4    7     1      -0.4626173287E-05       4    7    1        -0.2647732076E-03      0.5511135126E-03

    ------------------------------------------------
       NWT REQUIRED            4 OUTER ITERATIONS 
       AND A TOTAL OF          6 INNER ITERATIONS.
    ------------------------------------------------

 NO OUTPUT CONTROL FOR STRESS PERIOD   12   TIME STEP   18
 
 SOLVING FOR HEAD 
                                                   Max.-Head-Change                         Max.-Flux-Residual
  Residual-Control   Outer-Iter.   Inner-Iter.     Column Row Layer    Maximum-Head-Change  Column Row Layer    Maximum-Flux-Residual          L2-NORM 
          0                 1           2             4    7     1       0.1730924393E-01       4    7    1         0.9119717992E+00      0.1901698040E+01
          0                 2           2             4    7     1      -0.1683723958E-02       4    7    1        -0.9119762083E-01      0.1901685194E+00
          0                 3           1             4    7     1       0.1146552973E-03       4    7    1         0.6383832040E-02      0.1331164067E-01
          0                 4           1             4    7     1      -0.4562243391E-05       4    7    1        -0.2610991178E-03      0.5444368032E-03

    ------------------------------------------------
       NWT REQUIRED            4 OUTER ITERATIONS 
       AND A TOTAL OF          6 INNER ITERATIONS.
    ------------------------------------------------

 NO OUTPUT CONTROL FOR STRESS PERIOD   12   TIME STEP   19
 
 SOLVING FOR HEAD 
                                                   Max.-Head-Change                         Max.-Flux-Residual
  Residual-Control   Outer-Iter.   Inner-Iter.     Column Row Layer    Maximum-Head-Change  Column Row Layer    Maximum-Flux-Residual          L2-NORM 
          0                 1           2             4    7     1       0.1707086715E-01       4    7    1         0.8993592214E+00      0.1878975097E+01
          0                 2           2             4    7     1      -0.1660536224E-02       4    7    1        -0.8993635129E-01      0.1878963329E+00
          0                 3           1             4    7     1       0.1130763003E-03       4    7    1         0.6295543249E-02      0.1315260862E-01
          0                 4           1             4    7     1      -0.4499413769E-05       4    7    1        -0.2574880996E-03      0.5379365715E-03

    ------------------------------------------------
       NWT REQUIRED            4 OUTER ITERATIONS 
       AND A TOTAL OF          6 INNER ITERATIONS.
    ------------------------------------------------

 NO OUTPUT CONTROL FOR STRESS PERIOD   12   TIME STEP   20
 
 SOLVING FOR HEAD 
                                                   Max.-Head-Change                         Max.-Flux-Residual
  Residual-Control   Outer-Iter.   Inner-Iter.     Column Row Layer    Maximum-Head-Change  Column Row Layer    Maximum-Flux-Residual          L2-NORM 
          0                 1           2             4    7     1       0.1683698732E-01       4    7    1         0.8869849423E+00      0.1856684965E+01
          0                 2           2             4    7     1      -0.1637785925E-02       4    7    1        -0.8869891199E-01      0.1856674356E+00
          0                 3           1             4    7     1       0.1115270908E-03       4    7    1         0.6208922558E-02      0.1299660191E-01
          0                 4           1             4    7     1      -0.4437769041E-05       4    7    1        -0.2539453039E-03      0.5315545927E-03

    ------------------------------------------------
       NWT REQUIRED            4 OUTER ITERATIONS 
       AND A TOTAL OF          6 INNER ITERATIONS.
    ------------------------------------------------

 NO OUTPUT CONTROL FOR STRESS PERIOD   12   TIME STEP   21
 
 SOLVING FOR HEAD 
                                                   Max.-Head-Change                         Max.-Flux-Residual
  Residual-Control   Outer-Iter.   Inner-Iter.     Column Row Layer    Maximum-Head-Change  Column Row Layer    Maximum-Flux-Residual          L2-NORM 
          0                 1           2             4    7     1       0.1660710376E-01       4    7    1         0.8748217912E+00      0.1834805185E+01
          0                 2           2             4    7     1      -0.1615424360E-02       4    7    1        -0.8748258578E-01      0.1834795427E+00
          0                 3           1             4    7     1       0.1100043529E-03       4    7    1         0.6123779809E-02      0.1284343847E-01
          0                 4           1             4    7     1      -0.4377177615E-05       4    7    1        -0.2504629556E-03      0.5252845445E-03

    ------------------------------------------------
       NWT REQUIRED            4 OUTER ITERATIONS 
       AND A TOTAL OF          6 INNER ITERATIONS.
    ------------------------------------------------

 NO OUTPUT CONTROL FOR STRESS PERIOD   12   TIME STEP   22
 
 SOLVING FOR HEAD 
                                                   Max.-Head-Change                         Max.-Flux-Residual
  Residual-Control   Outer-Iter.   Inner-Iter.     Column Row Layer    Maximum-Head-Change  Column Row Layer    Maximum-Flux-Residual          L2-NORM 
          0                 1           2             4    7     1       0.1638154386E-01       4    7    1         0.8628878747E+00      0.1813331830E+01
          0                 2           2             4    7     1      -0.1593483373E-02       4    7    1        -0.8628918333E-01      0.1813322973E+00
          0                 3           1             4    7     1       0.1085102543E-03       4    7    1         0.6040241683E-02      0.1269316433E-01
          0                 4           1             4    7     1      -0.4317726298E-05       4    7    1        -0.2470462391E-03      0.5191697496E-03

    ------------------------------------------------
       NWT REQUIRED            4 OUTER ITERATIONS 
       AND A TOTAL OF          6 INNER ITERATIONS.
    ------------------------------------------------

 NO OUTPUT CONTROL FOR STRESS PERIOD   12   TIME STEP   23
 
 SOLVING FOR HEAD 
                                                   Max.-Head-Change                         Max.-Flux-Residual
  Residual-Control   Outer-Iter.   Inner-Iter.     Column Row Layer    Maximum-Head-Change  Column Row Layer    Maximum-Flux-Residual          L2-NORM 
          0                 1           2             4    7     1       0.1615994313E-01       4    7    1         0.8511634446E+00      0.1792251236E+01
          0                 2           2             4    7     1      -0.1571927508E-02       4    7    1        -0.8511672982E-01      0.1792242980E+00
          0                 3           1             4    7     1       0.1070423815E-03       4    7    1         0.5958170013E-02      0.1254560574E-01
          0                 4           1             4    7     1      -0.4259318037E-05       4    7    1        -0.2436895020E-03      0.5131114270E-03

    ------------------------------------------------
       NWT REQUIRED            4 OUTER ITERATIONS 
       AND A TOTAL OF          6 INNER ITERATIONS.
    ------------------------------------------------

 NO OUTPUT CONTROL FOR STRESS PERIOD   12   TIME STEP   24
 
 SOLVING FOR HEAD 
                                                   Max.-Head-Change                         Max.-Flux-Residual
  Residual-Control   Outer-Iter.   Inner-Iter.     Column Row Layer    Maximum-Head-Change  Column Row Layer    Maximum-Flux-Residual          L2-NORM 
          0                 1           2             4    7     1       0.1594222376E-01       4    7    1         0.8396442911E+00      0.1771555233E+01
          0                 2           2             4    7     1      -0.1550749200E-02       4    7    1        -0.8396480428E-01      0.1771547567E+00
          0                 3           1             4    7     1       0.1056002185E-03       4    7    1         0.5877535276E-02      0.1240073582E-01
          0                 4           1             4    7     1      -0.4201933260E-05       4    7    1        -0.2403915328E-03      0.5071860221E-03

    ------------------------------------------------
       NWT REQUIRED            4 OUTER ITERATIONS 
       AND A TOTAL OF          6 INNER ITERATIONS.
    ------------------------------------------------

 NO OUTPUT CONTROL FOR STRESS PERIOD   12   TIME STEP   25
 
 SOLVING FOR HEAD 
                                                   Max.-Head-Change                         Max.-Flux-Residual
  Residual-Control   Outer-Iter.   Inner-Iter.     Column Row Layer    Maximum-Head-Change  Column Row Layer    Maximum-Flux-Residual          L2-NORM 
          0                 1           2             4    7     1       0.1572857490E-01       4    7    1         0.8283410719E+00      0.1751233302E+01
          0                 2           2             4    7     1      -0.1529966846E-02       4    7    1        -0.8283447245E-01      0.1751226204E+00
          0                 3           1             4    7     1       0.1041850191E-03       4    7    1         0.5798412125E-02      0.1225849868E-01
          0                 4           1             4    7     1      -0.4145621127E-05       4    7    1        -0.2371554083E-03      0.5013639546E-03

    ------------------------------------------------
       NWT REQUIRED            4 OUTER ITERATIONS 
       AND A TOTAL OF          6 INNER ITERATIONS.
    ------------------------------------------------

 NO OUTPUT CONTROL FOR STRESS PERIOD   12   TIME STEP   26
 
 SOLVING FOR HEAD 
                                                   Max.-Head-Change                         Max.-Flux-Residual
  Residual-Control   Outer-Iter.   Inner-Iter.     Column Row Layer    Maximum-Head-Change  Column Row Layer    Maximum-Flux-Residual          L2-NORM 
          0                 1           2             4    7     1       0.1551863920E-01       4    7    1         0.8172342121E+00      0.1731281307E+01
          0                 2           2             4    7     1      -0.1509545685E-02       4    7    1        -0.8172377684E-01      0.1731274819E+00
          0                 3           1             4    7     1       0.1027944148E-03       4    7    1         0.5720663481E-02      0.1211884459E-01
          0                 4           1             4    7     1      -0.4090287464E-05       4    7    1        -0.2339754615E-03      0.4956525792E-03

    ------------------------------------------------
       NWT REQUIRED            4 OUTER ITERATIONS 
       AND A TOTAL OF          6 INNER ITERATIONS.
    ------------------------------------------------

 NO OUTPUT CONTROL FOR STRESS PERIOD   12   TIME STEP   27
 
 SOLVING FOR HEAD 
                                                   Max.-Head-Change                         Max.-Flux-Residual
  Residual-Control   Outer-Iter.   Inner-Iter.     Column Row Layer    Maximum-Head-Change  Column Row Layer    Maximum-Flux-Residual          L2-NORM 
          0                 1           2             4    7     1       0.1531247724E-01       4    7    1         0.8063272200E+00      0.1711683502E+01
          0                 2           2             4    7     1      -0.1489491609E-02       4    7    1        -0.8063306827E-01      0.1711677249E+00
          0                 3           1             4    7     1       0.1014288084E-03       4    7    1         0.5644313947E-02      0.1198165757E-01
          0                 4           1             4    7     1      -0.4035949078E-05       4    7    1        -0.2308527810E-03      0.4900484901E-03

    ------------------------------------------------
       NWT REQUIRED            4 OUTER ITERATIONS 
       AND A TOTAL OF          6 INNER ITERATIONS.
    ------------------------------------------------

 NO OUTPUT CONTROL FOR STRESS PERIOD   12   TIME STEP   28
 
 SOLVING FOR HEAD 
                                                   Max.-Head-Change                         Max.-Flux-Residual
  Residual-Control   Outer-Iter.   Inner-Iter.     Column Row Layer    Maximum-Head-Change  Column Row Layer    Maximum-Flux-Residual          L2-NORM 
          0                 1           2             4    7     1       0.1511000888E-01       4    7    1         0.7956158912E+00      0.1692441143E+01
          0                 2           2             4    7     1      -0.1469796824E-02       4    7    1        -0.7956192628E-01      0.1692435294E+00
          0                 3           1             4    7     1       0.1000876674E-03       4    7    1         0.5569334043E-02      0.1184698443E-01
          0                 4           1             4    7     1      -0.3982583751E-05       4    7    1        -0.2277860908E-03      0.4845481711E-03

    ------------------------------------------------
       NWT REQUIRED            4 OUTER ITERATIONS 
       AND A TOTAL OF          6 INNER ITERATIONS.
    ------------------------------------------------

 NO OUTPUT CONTROL FOR STRESS PERIOD   12   TIME STEP   29
 
 SOLVING FOR HEAD 
                                                   Max.-Head-Change                         Max.-Flux-Residual
  Residual-Control   Outer-Iter.   Inner-Iter.     Column Row Layer    Maximum-Head-Change  Column Row Layer    Maximum-Flux-Residual          L2-NORM 
          0                 1           2             4    7     1       0.1491115234E-01       4    7    1         0.7850960706E+00      0.1673968255E+01
          0                 2           2             4    7     1      -0.1450453375E-02       4    7    1        -0.7850993540E-01      0.1673956525E+00
          0                 3           1             4    7     1       0.9877045190E-04       4    7    1         0.5495694749E-02      0.1171758218E-01

    ------------------------------------------------
       NWT REQUIRED            3 OUTER ITERATIONS 
       AND A TOTAL OF          5 INNER ITERATIONS.
    ------------------------------------------------

 NO OUTPUT CONTROL FOR STRESS PERIOD   12   TIME STEP   30



 STREAM LISTING     PERIOD     12   STEP       30

 LAYER ROW COL. STREAM  RCH.  FLOW INTO     FLOW TO   FLOW OUT OF   OVRLND.     DIRECT     STREAM       STREAM     STREAM     STREAM   STREAMBED  STREAMBED
                SEG.NO.  NO.  STRM. RCH.    AQUIFER    STRM. RCH.    RUNOFF     PRECIP       ET          HEAD       DEPTH      WIDTH   CONDCTNC.   GRADIENT

   1    1    1     1     1    9.5403E+00  1.4421E-01   9.3961E+00  0.000E+00  0.000E+00  0.000E+00  1.09393E+03  8.839E-01  8.251E+00  3.713E-02  1.295E+00
   1    2    2     1     2    9.3961E+00  2.2163E-01   9.1745E+00  0.000E+00  0.000E+00  0.000E+00  1.08894E+03  8.782E-01  8.164E+00  5.715E-02  1.293E+00
   1    3    3     1     3    9.1745E+00  1.8736E-01   8.9871E+00  0.000E+00  0.000E+00  0.000E+00  1.08329E+03  8.718E-01  8.065E+00  4.839E-02  1.291E+00
   1    3    4     1     4    8.9871E+00  1.7119E-01   8.8160E+00  0.000E+00  0.000E+00  0.000E+00  1.07827E+03  8.661E-01  7.978E+00  4.428E-02  1.289E+00
   1    4    5     2     1    6.8160E+00  2.7666E-01   6.5393E+00  0.000E+00  0.000E+00  0.000E+00  1.07248E+03  5.469E-01  1.200E+01  7.800E-02  1.182E+00
   1    5    6     2     2    6.5393E+00  2.1209E-01   6.3272E+00  0.000E+00  0.000E+00  0.000E+00  1.06704E+03  5.348E-01  1.200E+01  6.000E-02  1.178E+00
   1    6    6     2     3    6.3272E+00  2.1145E-01   6.1158E+00  0.000E+00  0.000E+00  0.000E+00  1.06232E+03  5.242E-01  1.200E+01  6.000E-02  1.175E+00
   1    7    6     2     4    6.1158E+00  2.1081E-01   5.9050E+00  0.000E+00  0.000E+00  0.000E+00  1.05759E+03  5.134E-01  1.200E+01  6.000E-02  1.171E+00
   1    8    6     2     5    5.9050E+00  2.1015E-01   5.6948E+00  0.000E+00  0.000E+00  0.000E+00  1.05286E+03  5.026E-01  1.200E+01  6.000E-02  1.168E+00
   1    3    5     3     1    2.0000E+00  2.8252E-01   1.7175E+00  0.000E+00  0.000E+00  0.000E+00  1.07555E+03  1.909E+00  9.636E+00  7.227E-02  1.955E+00
   1    3    6     3     2    1.7175E+00  2.4905E-01   1.4684E+00  0.000E+00  0.000E+00  0.000E+00  1.07264E+03  1.727E+00  8.909E+00  6.682E-02  1.864E+00
   1    3    7     3     3    1.4684E+00  1.9718E-01   1.2712E+00  0.000E+00  0.000E+00  0.000E+00  1.06987E+03  1.555E+00  8.218E+00  5.547E-02  1.777E+00
   1    4    8     3     4    1.2712E+00  2.2567E-01   1.0456E+00  0.000E+00  0.000E+00  0.000E+00  1.06682E+03  1.364E+00  7.455E+00  6.709E-02  1.682E+00
   1    5    8     3     5    1.0456E+00  1.5790E-01   8.8768E-01  0.000E+00  0.000E+00  0.000E+00  1.06362E+03  1.164E+00  6.655E+00  4.991E-02  1.582E+00
   1    6    8     3     6    8.8768E-01  5.5980E-02   8.3170E-01  0.000E+00  0.000E+00  0.000E+00  1.06158E+03  1.036E+00  6.145E+00  1.844E-02  1.518E+00
   1    5   10     4     1    1.0000E+01  9.0919E-02   9.9091E+00  0.000E+00  0.000E+00  0.000E+00  1.07836E+03  6.368E-01  1.000E+01  2.500E-02  1.212E+00
   1    5    9     4     2    9.9091E+00  1.8158E-01   9.7275E+00  0.000E+00  0.000E+00  0.000E+00  1.07154E+03  6.315E-01  1.000E+01  5.000E-02  1.211E+00
   1    6    8     4     3    9.7275E+00  1.2689E-01   9.6006E+00  0.000E+00  0.000E+00  0.000E+00  1.06381E+03  6.256E-01  1.000E+01  3.500E-02  1.209E+00
   1    6    8     5     1    1.0432E+01  2.2686E-01   1.0205E+01  0.000E+00  0.000E+00  0.000E+00  1.05868E+03  6.790E-01  1.542E+01  6.166E-02  1.226E+00
   1    7    7     5     2    1.0205E+01  2.7894E-01   9.9265E+00  0.000E+00  0.000E+00  0.000E+00  1.05417E+03  6.732E-01  1.519E+01  7.594E-02  1.224E+00
   1    8    7     5     3    9.9265E+00  1.9221E-01   9.7343E+00  0.000E+00  0.000E+00  0.000E+00  1.04992E+03  6.676E-01  1.497E+01  5.241E-02  1.223E+00
   1    8    6     5     4    9.7343E+00  1.3577E-01   9.5985E+00  0.000E+00  0.000E+00  0.000E+00  1.04691E+03  6.637E-01  1.482E+01  3.706E-02  1.221E+00
   1    9    6     6     1    1.5293E+01  2.3430E-01   1.5059E+01  0.000E+00  0.000E+00  0.000E+00  1.04363E+03  9.050E-01  1.200E+01  6.000E-02  1.302E+00
   1   10    7     6     2    1.5059E+01  2.3380E-01   1.4825E+01  0.000E+00  0.000E+00  0.000E+00  1.03908E+03  8.966E-01  1.200E+01  6.000E-02  1.299E+00
   1   11    7     6     3    1.4825E+01  2.3329E-01   1.4592E+01  0.000E+00  0.000E+00  0.000E+00  1.03452E+03  8.882E-01  1.200E+01  6.000E-02  1.296E+00
   1   12    7     6     4    1.4592E+01  2.3278E-01   1.4359E+01  0.000E+00  0.000E+00  0.000E+00  1.02997E+03  8.797E-01  1.200E+01  6.000E-02  1.293E+00
   1   13    7     6     5    1.4359E+01 -1.3290E-02   1.4372E+01  0.000E+00  0.000E+00  0.000E+00  1.02678E+03  8.757E-01  1.200E+01  2.400E-01 -1.846E-02
   1   14    9     7     1    1.5000E+02  1.3693E+00   1.4863E+02  0.000E+00  0.000E+00  0.000E+00  1.03987E+03  2.288E+00  5.529E+01  5.593E-01  8.161E-01
   1   13    8     7     2    1.4863E+02  1.9190E+00   1.4671E+02  0.000E+00  0.000E+00  0.000E+00  1.03478E+03  2.279E+00  5.526E+01  6.148E-01  1.041E+00
   1   13    7     7     3    1.4671E+02  1.5907E+00   1.4512E+02  0.000E+00  0.000E+00  0.000E+00  1.02969E+03  2.270E+00  5.521E+01  5.584E-01  9.496E-01
   1   13    6     8     1    1.5949E+02  9.7789E-01   1.5852E+02  0.000E+00  0.000E+00  0.000E+00  1.02475E+03  2.879E+00  4.175E+01  4.254E-01  7.662E-01
   1   13    5     8     2    1.5852E+02  2.3290E-01   1.5828E+02  0.000E+00  0.000E+00  0.000E+00  1.01850E+03  2.875E+00  4.169E+01  4.248E-01  1.827E-01
   1   13    4     8     3    1.5828E+02 -2.2397E+00   1.6052E+02  0.000E+00  0.000E+00  0.000E+00  1.01226E+03  2.882E+00  4.179E+01  4.258E+00 -1.753E-01
   1   13    3     8     4    1.6052E+02 -3.5500E+00   1.6407E+02  0.000E+00  0.000E+00  0.000E+00  1.00603E+03  2.901E+00  4.207E+01  4.287E+00 -2.760E-01
   1   13    2     8     5    1.6407E+02 -2.5566E+00   1.6663E+02  0.000E+00  0.000E+00  0.000E+00  9.99797E+02  2.922E+00  4.236E+01  4.317E+00 -1.974E-01
   1   13    1     8     6    1.6663E+02 -1.9753E+00   1.6860E+02  0.000E+00  0.000E+00  0.000E+00  9.94812E+02  2.937E+00  4.258E+01  2.603E+00 -2.529E-01
   1    8    6     9     1    0.0000E+00  0.0000E+00   0.0000E+00  0.000E+00  0.000E+00  0.000E+00  1.07875E+03  0.000E+00  4.000E+00  0.000E+00  1.000E+00
   1    8    5     9     2    0.0000E+00  0.0000E+00   0.0000E+00  0.000E+00  0.000E+00  0.000E+00  1.07825E+03  0.000E+00  4.000E+00  0.000E+00  1.000E+00





UNSATURATED ZONE PACKAGE VOLUMETRIC BUDGET FOR  TIME STEP    30 STRESS PERIOD   12
  ------------------------------------------------------------------------------



     CUMULATIVE VOLUMES      L**3       RATES FOR THIS TIME STEP      L**3/T
     ------------------                 ------------------------

           IN:                                      IN:
           ---                                      ---
        INFILTRATION =   527250116.2356          INFILTRATION =           4.4075

          OUT:                                     OUT:
          ----                                     ----
              UZF ET =   495640533.5231                UZF ET =           0.7250
        UZF RECHARGE =       73224.0000          UZF RECHARGE =       0.0000E+00

            IN - OUT =    31536358.7125              IN - OUT =           3.6825

          STORAGE:                                 STORAGE:
          --------                                 --------
      STORAGE CHANGE =    31536351.8782        STORAGE CHANGE =           3.6825

 PERCENT DISCREPANCY IS DIFFERENCE BETWEEN IN-OUT MINUS CHANGE IN STORAGE
 DIVIDED BY THE AVERAGE OF IN AND OUT TIMES 100

 PERCENT DISCREPANCY =           0.00     PERCENT DISCREPANCY =           0.00






1
  VOLUMETRIC BUDGET FOR AGRICULTURAL FIELDS AT  END OF TIME STEP   30, STRESS PERIOD  12
  ------------------------------------------------------------------------------

     CUMULATIVE VOLUMES      L**3       RATES FOR THIS TIME STEP      L**3/T
     ------------------                 ------------------------

           IN:                                      IN:
           ---                                      ---
               AG WELLS  =   174751168.0000                 AG WELLS  =           0.0000
      DIVERSION SEGMENTS =   224912208.0000        DIVERSION SEGMENTS =           0.0000
           GW IRRIGATION =           0.0000             GW IRRIGATION =           0.0000
           SW IRRIGATION =           0.0000             SW IRRIGATION =           0.0000
        SYSTEM LOSSES GW =           0.0000          SYSTEM LOSSES GW =           0.0000
        SYSTEM LOSSES SW =           0.0000          SYSTEM LOSSES SW =           0.0000

                TOTAL IN =   399663360.0000                  TOTAL IN =           0.0000

          OUT:                                     OUT:
          ----                                     ----
               AG WELLS  =           0.0000                 AG WELLS  =           0.0000
      DIVERSION SEGMENTS =           0.0000        DIVERSION SEGMENTS =           0.0000
           GW IRRIGATION =   174751168.0000             GW IRRIGATION =           0.0000
           SW IRRIGATION =   224916624.0000             SW IRRIGATION =           0.0000
        SYSTEM LOSSES GW =           0.0000          SYSTEM LOSSES GW =           0.0000
        SYSTEM LOSSES SW =           0.0000          SYSTEM LOSSES SW =           0.0000

               TOTAL OUT =   399667776.0000                 TOTAL OUT =           0.0000

                IN - OUT =       -4416.0000                  IN - OUT =           0.0000

     PERCENT DISCREPANCY =          -0.00         PERCENT DISCREPANCY =           0.00



1
  VOLUMETRIC BUDGET FOR ENTIRE MODEL AT END OF TIME STEP   30, STRESS PERIOD  12
  ------------------------------------------------------------------------------

     CUMULATIVE VOLUMES      L**3       RATES FOR THIS TIME STEP      L**3/T
     ------------------                 ------------------------

           IN:                                      IN:
           ---                                      ---
             STORAGE     =   242348848.0000               STORAGE     =           4.1123
       CONSTANT HEAD     =           0.0000         CONSTANT HEAD     =           0.0000
     HEAD DEP BOUNDS     =     8354575.5000       HEAD DEP BOUNDS     =           0.2880
      STREAM LEAKAGE     =   340999488.0000        STREAM LEAKAGE     =          11.2710
        UZF RECHARGE     =       73223.9531          UZF RECHARGE     =           0.0000
               GW ET     =           0.0000                 GW ET     =           0.0000
     SURFACE LEAKAGE     =           0.0000       SURFACE LEAKAGE     =           0.0000
           AG WELLS      =           0.0000             AG WELLS      =           0.0000

                TOTAL IN =   591776128.0000                  TOTAL IN =          15.6713

          OUT:                                     OUT:
          ----                                     ----
             STORAGE     =   108595944.0000               STORAGE     =           5.0489
       CONSTANT HEAD     =           0.0000         CONSTANT HEAD     =           0.0000
     HEAD DEP BOUNDS     =     8355938.0000       HEAD DEP BOUNDS     =           0.2877
      STREAM LEAKAGE     =   300054816.0000        STREAM LEAKAGE     =          10.3350
        UZF RECHARGE     =           0.0000          UZF RECHARGE     =           0.0000
               GW ET     =           0.0000                 GW ET     =           0.0000
     SURFACE LEAKAGE     =           0.0000       SURFACE LEAKAGE     =           0.0000
           AG WELLS      =   174751168.0000             AG WELLS      =           0.0000

               TOTAL OUT =   591757824.0000                 TOTAL OUT =          15.6716

                IN - OUT =       18304.0000                  IN - OUT =      -2.6417E-04

     PERCENT DISCREPANCY =           0.00         PERCENT DISCREPANCY =          -0.00






         TIME SUMMARY AT END OF TIME STEP   30 IN STRESS PERIOD   12
                    SECONDS     MINUTES      HOURS       DAYS        YEARS
                    -----------------------------------------------------------
   TIME STEP LENGTH  87667.      1461.1      24.352      1.0147     2.77799E-03
 STRESS PERIOD TIME 2.63000E+06  43833.      730.56      30.440     8.33397E-02
         TOTAL TIME 2.90163E+07 4.83606E+05  8060.1      335.84     0.91947    
1
1
                            STRESS PERIOD NO.   13, LENGTH =   2630000.    
                            -----------------------------------------------

                              NUMBER OF TIME STEPS =    30

                               MULTIPLIER FOR DELT =     1.000

                            INITIAL TIME STEP SIZE =   87666.66    

 REUSING NON-PARAMETER GHB CELLS FROM LAST STRESS PERIOD

      2 GHB CELLS

 REUSING STREAM SEGMENT DATA FROM LAST STRESS PERIOD



            AREAL INFILTRATION RATE
 READING ON UNIT   19 WITH FORMAT: (10F4.0)            

            1           2           3           4           5           6           7           8           9          10
 ........................................................................................................................
   1   1.2000E-09   0.000       0.000       0.000       0.000       0.000       0.000       0.000       0.000       0.000    
   2   2.1000E-09  2.0000E-09  8.0000E-10  8.5000E-09   0.000       0.000       0.000       0.000       0.000       0.000    
   3   5.0000E-10  1.1000E-09  8.8000E-09  5.5000E-09   0.000       0.000       0.000       0.000       0.000       0.000    
   4   8.5000E-09  1.1000E-09  1.1000E-09  1.1000E-09  2.0000E-09   0.000       0.000       0.000       0.000       0.000    
   5   8.5000E-09  1.1000E-09  1.1000E-09  1.1000E-09  1.1000E-09   0.000       0.000       0.000       0.000       0.000    
   6   8.5000E-09  5.2000E-09  2.1000E-09  1.1000E-09  1.5000E-09   0.000       0.000       0.000       0.000       0.000    
   7   8.5000E-09  5.2000E-09  2.1000E-09  1.2000E-09  2.0000E-09   0.000       0.000       0.000       0.000       0.000    
   8   5.0000E-10  5.2000E-09  2.1000E-09  1.2000E-09  5.0000E-09   0.000       0.000       0.000       0.000       0.000    
   9   5.0000E-10  5.2000E-09  2.1000E-09  1.2000E-09  5.0000E-09   0.000       0.000       0.000       0.000       0.000    
  10   5.0000E-10  5.2000E-09  2.1000E-09  1.2000E-09  5.8000E-09   0.000       0.000       0.000       0.000       0.000    
  11   1.0000E-10  1.1000E-09  1.1000E-09  1.2000E-09  5.0000E-09   0.000       0.000       0.000       0.000       0.000    
  12   1.1000E-09  1.1000E-09  1.1000E-09  1.1000E-09  2.0000E-09   0.000       0.000       0.000       0.000       0.000    
  13   1.1000E-09  2.2000E-09  2.2000E-09  2.1000E-09  1.0000E-09   0.000       0.000       0.000       0.000       0.000    
  14   2.0000E-10  5.5000E-09  5.5000E-09  5.2000E-09  1.0000E-09   0.000       0.000       0.000       0.000       0.000    
  15    0.000      8.8000E-09  8.8000E-09   0.000       0.000       0.000       0.000       0.000       0.000       0.000    

                  ET RATE =  5.000000E-10

 USING ET EXTINCTION DEPTH FROM PREVIOUS STRESS PERIOD. CURRENT PERIOD IS:      13

 USING EXTINCTION WATER CONTENT FROM PREVIOUS STRESS PERIOD. CURRENT PERIOD IS:      13

 USING AIR ENTRY PRESSURE FROM PREVIOUS STRESS PERIOD. CURRENT PERIOD IS:      13

 USING ROOT PRESSURE HEAD FROM PREVIOUS STRESS PERIOD. CURRENT PERIOD IS:      13

 USING ROOT ACTIVITY FROM PREVIOUS STRESS PERIOD. CURRENT PERIOD IS:      13

 PROCESSING AG STRESS PERIOD DATA

 READING AG STRESS PERIOD DATA

 READING IRRIGATION SEGMENT

 READING IRRIGATION WELL

 READING SUPPLEMENTAL WELL

 END PROCESSING AG STRESS PERIOD DATA OPTIONS
 
 SOLVING FOR HEAD 
                                                   Max.-Head-Change                         Max.-Flux-Residual
  Residual-Control   Outer-Iter.   Inner-Iter.     Column Row Layer    Maximum-Head-Change  Column Row Layer    Maximum-Flux-Residual          L2-NORM 
          0                 1           2             4    7     1       0.1471588569E-01       4    7    1         0.7747673961E+00      0.1657891457E+01
          0                 2           2             4    7     1      -0.1431459128E-02       4    7    1        -0.7747705939E-01      0.1657830216E+00
          0                 3           1             4    7     1       0.9747701495E-04       4    7    1         0.5423393474E-02      0.1160425424E-01

    ------------------------------------------------
       NWT REQUIRED            3 OUTER ITERATIONS 
       AND A TOTAL OF          5 INNER ITERATIONS.
    ------------------------------------------------

 NO OUTPUT CONTROL FOR STRESS PERIOD   13   TIME STEP    1
 
 SOLVING FOR HEAD 
                                                   Max.-Head-Change                         Max.-Flux-Residual
  Residual-Control   Outer-Iter.   Inner-Iter.     Column Row Layer    Maximum-Head-Change  Column Row Layer    Maximum-Flux-Residual          L2-NORM 
          0                 1           2             4    7     1       0.1452393019E-01       4    7    1         0.7646136872E+00      0.1639498000E+01
          0                 2           2             4    7     1      -0.1412786968E-02       4    7    1        -0.7646168014E-01      0.1639442904E+00
          0                 3           1             4    7     1       0.9620551159E-04       4    7    1         0.5352316977E-02      0.1147555844E-01

    ------------------------------------------------
       NWT REQUIRED            3 OUTER ITERATIONS 
       AND A TOTAL OF          5 INNER ITERATIONS.
    ------------------------------------------------

 NO OUTPUT CONTROL FOR STRESS PERIOD   13   TIME STEP    2
 
 SOLVING FOR HEAD 
                                                   Max.-Head-Change                         Max.-Flux-Residual
  Residual-Control   Outer-Iter.   Inner-Iter.     Column Row Layer    Maximum-Head-Change  Column Row Layer    Maximum-Flux-Residual          L2-NORM 
          0                 1           2             4    7     1       0.1433534936E-01       4    7    1         0.7546390023E+00      0.1621430666E+01
          0                 2           2             4    7     1      -0.1394443076E-02       4    7    1        -0.7546420356E-01      0.1621381140E+00
          0                 3           1             4    7     1       0.9495636142E-04       4    7    1         0.5282493667E-02      0.1134918092E-01

    ------------------------------------------------
       NWT REQUIRED            3 OUTER ITERATIONS 
       AND A TOTAL OF          5 INNER ITERATIONS.
    ------------------------------------------------

 NO OUTPUT CONTROL FOR STRESS PERIOD   13   TIME STEP    3
 
 SOLVING FOR HEAD 
                                                   Max.-Head-Change                         Max.-Flux-Residual
  Residual-Control   Outer-Iter.   Inner-Iter.     Column Row Layer    Maximum-Head-Change  Column Row Layer    Maximum-Flux-Residual          L2-NORM 
          0                 1           2             4    7     1       0.1415021036E-01       4    7    1         0.7448466357E+00      0.1603694348E+01
          0                 2           2             4    7     1      -0.1376433983E-02       4    7    1        -0.7448495904E-01      0.1603649900E+00
          0                 3           1             4    7     1       0.9373001011E-04       4    7    1         0.5213946584E-02      0.1122510888E-01

    ------------------------------------------------
       NWT REQUIRED            3 OUTER ITERATIONS 
       AND A TOTAL OF          5 INNER ITERATIONS.
    ------------------------------------------------

 NO OUTPUT CONTROL FOR STRESS PERIOD   13   TIME STEP    4
 
 SOLVING FOR HEAD 
                                                   Max.-Head-Change                         Max.-Flux-Residual
  Residual-Control   Outer-Iter.   Inner-Iter.     Column Row Layer    Maximum-Head-Change  Column Row Layer    Maximum-Flux-Residual          L2-NORM 
          0                 1           2             4    7     1       0.1396829791E-01       4    7    1         0.7352253753E+00      0.1586262532E+01
          0                 2           2             4    7     1      -0.1358738750E-02       4    7    1        -0.7352282535E-01      0.1586222817E+00
          0                 3           1             4    7     1       0.9252503193E-04       4    7    1         0.5146597282E-02      0.1110320184E-01

    ------------------------------------------------
       NWT REQUIRED            3 OUTER ITERATIONS 
       AND A TOTAL OF          5 INNER ITERATIONS.
    ------------------------------------------------

 NO OUTPUT CONTROL FOR STRESS PERIOD   13   TIME STEP    5
 
 SOLVING FOR HEAD 
                                                   Max.-Head-Change                         Max.-Flux-Residual
  Residual-Control   Outer-Iter.   Inner-Iter.     Column Row Layer    Maximum-Head-Change  Column Row Layer    Maximum-Flux-Residual          L2-NORM 
          0                 1           2             4    7     1       0.1378954628E-01       4    7    1         0.7257714060E+00      0.1569145574E+01
          0                 2           2             4    7     1      -0.1341350980E-02       4    7    1        -0.7257742099E-01      0.1569108723E+00
          0                 3           1             4    7     1       0.9134098987E-04       4    7    1         0.5080418995E-02      0.1098341949E-01

    ------------------------------------------------
       NWT REQUIRED            3 OUTER ITERATIONS 
       AND A TOTAL OF          5 INNER ITERATIONS.
    ------------------------------------------------

 NO OUTPUT CONTROL FOR STRESS PERIOD   13   TIME STEP    6
 
 SOLVING FOR HEAD 
                                                   Max.-Head-Change                         Max.-Flux-Residual
  Residual-Control   Outer-Iter.   Inner-Iter.     Column Row Layer    Maximum-Head-Change  Column Row Layer    Maximum-Flux-Residual          L2-NORM 
          0                 1           2             4    7     1       0.1361388568E-01       4    7    1         0.7164813202E+00      0.1552314553E+01
          0                 2           2             4    7     1      -0.1324263888E-02       4    7    1        -0.7164840520E-01      0.1552281935E+00
          0                 3           1             4    7     1       0.9017742359E-04       4    7    1         0.5015387955E-02      0.1086566471E-01

    ------------------------------------------------
       NWT REQUIRED            3 OUTER ITERATIONS 
       AND A TOTAL OF          5 INNER ITERATIONS.
    ------------------------------------------------

 NO OUTPUT CONTROL FOR STRESS PERIOD   13   TIME STEP    7
 
 SOLVING FOR HEAD 
                                                   Max.-Head-Change                         Max.-Flux-Residual
  Residual-Control   Outer-Iter.   Inner-Iter.     Column Row Layer    Maximum-Head-Change  Column Row Layer    Maximum-Flux-Residual          L2-NORM 
          0                 1           2             4    7     1       0.1344138651E-01       4    7    1         0.7073588471E+00      0.1535778192E+01
          0                 2           2             4    7     1      -0.1307484318E-02       4    7    1        -0.7073615087E-01      0.1535747660E+00
          0                 3           1             4    7     1       0.8903479805E-04       4    7    1         0.4951530190E-02      0.1074994949E-01

    ------------------------------------------------
       NWT REQUIRED            3 OUTER ITERATIONS 
       AND A TOTAL OF          5 INNER ITERATIONS.
    ------------------------------------------------

 NO OUTPUT CONTROL FOR STRESS PERIOD   13   TIME STEP    8
 
 SOLVING FOR HEAD 
                                                   Max.-Head-Change                         Max.-Flux-Residual
  Residual-Control   Outer-Iter.   Inner-Iter.     Column Row Layer    Maximum-Head-Change  Column Row Layer    Maximum-Flux-Residual          L2-NORM 
          0                 1           2             4    7     1       0.1327184490E-01       4    7    1         0.6983929406E+00      0.1519527536E+01
          0                 2           2             4    7     1      -0.1290992442E-02       4    7    1        -0.6983955341E-01      0.1519499999E+00
          0                 3           1             4    7     1       0.8791176350E-04       4    7    1         0.4888768399E-02      0.1063625099E-01

    ------------------------------------------------
       NWT REQUIRED            3 OUTER ITERATIONS 
       AND A TOTAL OF          5 INNER ITERATIONS.
    ------------------------------------------------

 NO OUTPUT CONTROL FOR STRESS PERIOD   13   TIME STEP    9
 
 SOLVING FOR HEAD 
                                                   Max.-Head-Change                         Max.-Flux-Residual
  Residual-Control   Outer-Iter.   Inner-Iter.     Column Row Layer    Maximum-Head-Change  Column Row Layer    Maximum-Flux-Residual          L2-NORM 
          0                 1           2             4    7     1       0.1310532702E-01       4    7    1         0.6895877275E+00      0.1503546964E+01
          0                 2           2             4    7     1      -0.1274794695E-02       4    7    1        -0.6895902548E-01      0.1503521689E+00
          0                 3           1             4    7     1       0.8680875754E-04       4    7    1         0.4827131462E-02      0.1052440229E-01

    ------------------------------------------------
       NWT REQUIRED            3 OUTER ITERATIONS 
       AND A TOTAL OF          5 INNER ITERATIONS.
    ------------------------------------------------

 NO OUTPUT CONTROL FOR STRESS PERIOD   13   TIME STEP   10
 
 SOLVING FOR HEAD 
                                                   Max.-Head-Change                         Max.-Flux-Residual
  Residual-Control   Outer-Iter.   Inner-Iter.     Column Row Layer    Maximum-Head-Change  Column Row Layer    Maximum-Flux-Residual          L2-NORM 
          0                 1           2             4    7     1       0.1294163565E-01       4    7    1         0.6809319413E+00      0.1487837380E+01
          0                 2           2             4    7     1      -0.1258871893E-02       4    7    1        -0.6809344041E-01      0.1487814167E+00
          0                 3           1             4    7     1       0.8572447492E-04       4    7    1         0.4766540559E-02      0.1041449772E-01

    ------------------------------------------------
       NWT REQUIRED            3 OUTER ITERATIONS 
       AND A TOTAL OF          5 INNER ITERATIONS.
    ------------------------------------------------

 NO OUTPUT CONTROL FOR STRESS PERIOD   13   TIME STEP   11
 
 SOLVING FOR HEAD 
                                                   Max.-Head-Change                         Max.-Flux-Residual
  Residual-Control   Outer-Iter.   Inner-Iter.     Column Row Layer    Maximum-Head-Change  Column Row Layer    Maximum-Flux-Residual          L2-NORM 
          0                 1           2             4    7     1       0.1278084465E-01       4    7    1         0.6724300540E+00      0.1472394086E+01
          0                 2           2             4    7     1      -0.1243231221E-02       4    7    1        -0.6724324542E-01      0.1472372896E+00
          0                 3           1             4    7     1       0.8465940390E-04       4    7    1         0.4707026935E-02      0.1030643674E-01

    ------------------------------------------------
       NWT REQUIRED            3 OUTER ITERATIONS 
       AND A TOTAL OF          5 INNER ITERATIONS.
    ------------------------------------------------

 NO OUTPUT CONTROL FOR STRESS PERIOD   13   TIME STEP   12
 
 SOLVING FOR HEAD 
                                                   Max.-Head-Change                         Max.-Flux-Residual
  Residual-Control   Outer-Iter.   Inner-Iter.     Column Row Layer    Maximum-Head-Change  Column Row Layer    Maximum-Flux-Residual          L2-NORM 
          0                 1           2             4    7     1       0.1262288679E-01       4    7    1         0.6640785462E+00      0.1457206167E+01
          0                 2           2             4    7     1      -0.1227866138E-02       4    7    1        -0.6640808856E-01      0.1457186175E+00
          0                 3           1             4    7     1       0.8361309953E-04       4    7    1         0.4648565987E-02      0.1020012698E-01

    ------------------------------------------------
       NWT REQUIRED            3 OUTER ITERATIONS 
       AND A TOTAL OF          5 INNER ITERATIONS.
    ------------------------------------------------

 NO OUTPUT CONTROL FOR STRESS PERIOD   13   TIME STEP   13
 
 SOLVING FOR HEAD 
                                                   Max.-Head-Change                         Max.-Flux-Residual
  Residual-Control   Outer-Iter.   Inner-Iter.     Column Row Layer    Maximum-Head-Change  Column Row Layer    Maximum-Flux-Residual          L2-NORM 
          0                 1           2             4    7     1       0.1246756437E-01       4    7    1         0.6558665830E+00      0.1442263063E+01
          0                 2           2             4    7     1      -0.1212757415E-02       4    7    1        -0.6558688634E-01      0.1442244685E+00
          0                 3           1             4    7     1       0.8258425241E-04       4    7    1         0.4591081861E-02      0.1009555781E-01

    ------------------------------------------------
       NWT REQUIRED            3 OUTER ITERATIONS 
       AND A TOTAL OF          5 INNER ITERATIONS.
    ------------------------------------------------

 NO OUTPUT CONTROL FOR STRESS PERIOD   13   TIME STEP   14
 
 SOLVING FOR HEAD 
                                                   Max.-Head-Change                         Max.-Flux-Residual
  Residual-Control   Outer-Iter.   Inner-Iter.     Column Row Layer    Maximum-Head-Change  Column Row Layer    Maximum-Flux-Residual          L2-NORM 
          0                 1           2             4    7     1       0.1231482500E-01       4    7    1         0.6477912627E+00      0.1427567526E+01
          0                 2           2             4    7     1      -0.1197899954E-02       4    7    1        -0.6477934855E-01      0.1427550431E+00
          0                 3           1             4    7     1       0.8157251548E-04       4    7    1         0.4534554260E-02      0.9992680485E-02

    ------------------------------------------------
       NWT REQUIRED            3 OUTER ITERATIONS 
       AND A TOTAL OF          5 INNER ITERATIONS.
    ------------------------------------------------

 NO OUTPUT CONTROL FOR STRESS PERIOD   13   TIME STEP   15
 
 SOLVING FOR HEAD 
                                                   Max.-Head-Change                         Max.-Flux-Residual
  Residual-Control   Outer-Iter.   Inner-Iter.     Column Row Layer    Maximum-Head-Change  Column Row Layer    Maximum-Flux-Residual          L2-NORM 
          0                 1           2             4    7     1       0.1216488121E-01       4    7    1         0.6398645691E+00      0.1413113600E+01
          0                 2           2             4    7     1      -0.1183314429E-02       4    7    1        -0.6398667362E-01      0.1413097473E+00
          0                 3           1             4    7     1       0.8057929609E-04       4    7    1         0.4479067026E-02      0.9891541199E-02

    ------------------------------------------------
       NWT REQUIRED            3 OUTER ITERATIONS 
       AND A TOTAL OF          5 INNER ITERATIONS.
    ------------------------------------------------

 NO OUTPUT CONTROL FOR STRESS PERIOD   13   TIME STEP   16
 
 SOLVING FOR HEAD 
                                                   Max.-Head-Change                         Max.-Flux-Residual
  Residual-Control   Outer-Iter.   Inner-Iter.     Column Row Layer    Maximum-Head-Change  Column Row Layer    Maximum-Flux-Residual          L2-NORM 
          0                 1           2             4    7     1       0.1201739757E-01       4    7    1         0.6320681221E+00      0.1398888747E+01
          0                 2           2             4    7     1      -0.1168968213E-02       4    7    1        -0.6320702351E-01      0.1398873936E+00
          0                 3           1             4    7     1       0.7960237273E-04       4    7    1         0.4424491564E-02      0.9791965343E-02

    ------------------------------------------------
       NWT REQUIRED            3 OUTER ITERATIONS 
       AND A TOTAL OF          5 INNER ITERATIONS.
    ------------------------------------------------

 NO OUTPUT CONTROL FOR STRESS PERIOD   13   TIME STEP   17
 
 SOLVING FOR HEAD 
                                                   Max.-Head-Change                         Max.-Flux-Residual
  Residual-Control   Outer-Iter.   Inner-Iter.     Column Row Layer    Maximum-Head-Change  Column Row Layer    Maximum-Flux-Residual          L2-NORM 
          0                 1           2             4    7     1       0.1187245657E-01       4    7    1         0.6244065799E+00      0.1384894645E+01
          0                 2           2             4    7     1      -0.1154869328E-02       4    7    1        -0.6244086400E-01      0.1384880290E+00
          0                 3           1             4    7     1       0.7864229151E-04       4    7    1         0.4370860413E-02      0.9694030126E-02

    ------------------------------------------------
       NWT REQUIRED            3 OUTER ITERATIONS 
       AND A TOTAL OF          5 INNER ITERATIONS.
    ------------------------------------------------

 NO OUTPUT CONTROL FOR STRESS PERIOD   13   TIME STEP   18
 
 SOLVING FOR HEAD 
                                                   Max.-Head-Change                         Max.-Flux-Residual
  Residual-Control   Outer-Iter.   Inner-Iter.     Column Row Layer    Maximum-Head-Change  Column Row Layer    Maximum-Flux-Residual          L2-NORM 
          0                 1           2             4    7     1       0.1173000400E-01       4    7    1         0.6168768700E+00      0.1371131438E+01
          0                 2           2             4    7     1      -0.1141012502E-02       4    7    1        -0.6168788790E-01      0.1371118125E+00
          0                 3           1             4    7     1       0.7769869387E-04       4    7    1         0.4318152127E-02      0.9597678884E-02

    ------------------------------------------------
       NWT REQUIRED            3 OUTER ITERATIONS 
       AND A TOTAL OF          5 INNER ITERATIONS.
    ------------------------------------------------

 NO OUTPUT CONTROL FOR STRESS PERIOD   13   TIME STEP   19
 
 SOLVING FOR HEAD 
                                                   Max.-Head-Change                         Max.-Flux-Residual
  Residual-Control   Outer-Iter.   Inner-Iter.     Column Row Layer    Maximum-Head-Change  Column Row Layer    Maximum-Flux-Residual          L2-NORM 
          0                 1           2             4    7     1       0.1158998305E-01       4    7    1         0.6094761812E+00      0.1357581230E+01
          0                 2           2             4    7     1      -0.1127392208E-02       4    7    1        -0.6094781404E-01      0.1357568318E+00
          0                 3           1             4    7     1       0.7677120303E-04       4    7    1         0.4266346960E-02      0.9502868846E-02

    ------------------------------------------------
       NWT REQUIRED            3 OUTER ITERATIONS 
       AND A TOTAL OF          5 INNER ITERATIONS.
    ------------------------------------------------

 NO OUTPUT CONTROL FOR STRESS PERIOD   13   TIME STEP   20
 
 SOLVING FOR HEAD 
                                                   Max.-Head-Change                         Max.-Flux-Residual
  Residual-Control   Outer-Iter.   Inner-Iter.     Column Row Layer    Maximum-Head-Change  Column Row Layer    Maximum-Flux-Residual          L2-NORM 
          0                 1           2             4    7     1       0.1145220713E-01       4    7    1         0.6021942171E+00      0.1344243281E+01
          0                 2           2             4    7     1      -0.1113990296E-02       4    7    1        -0.6021961275E-01      0.1344231568E+00
          0                 3           1             4    7     1       0.7585858320E-04       4    7    1         0.4215372900E-02      0.9409516635E-02

    ------------------------------------------------
       NWT REQUIRED            3 OUTER ITERATIONS 
       AND A TOTAL OF          5 INNER ITERATIONS.
    ------------------------------------------------

 NO OUTPUT CONTROL FOR STRESS PERIOD   13   TIME STEP   21
 
 SOLVING FOR HEAD 
                                                   Max.-Head-Change                         Max.-Flux-Residual
  Residual-Control   Outer-Iter.   Inner-Iter.     Column Row Layer    Maximum-Head-Change  Column Row Layer    Maximum-Flux-Residual          L2-NORM 
          0                 1           2             4    7     1       0.1131689626E-01       4    7    1         0.5950433560E+00      0.1331121212E+01
          0                 2           2             4    7     1      -0.1100828168E-02       4    7    1        -0.5950452196E-01      0.1331109686E+00
          0                 3           1             4    7     1       0.7496229170E-04       4    7    1         0.4165316570E-02      0.9317647907E-02

    ------------------------------------------------
       NWT REQUIRED            3 OUTER ITERATIONS 
       AND A TOTAL OF          5 INNER ITERATIONS.
    ------------------------------------------------

 NO OUTPUT CONTROL FOR STRESS PERIOD   13   TIME STEP   22
 
 SOLVING FOR HEAD 
                                                   Max.-Head-Change                         Max.-Flux-Residual
  Residual-Control   Outer-Iter.   Inner-Iter.     Column Row Layer    Maximum-Head-Change  Column Row Layer    Maximum-Flux-Residual          L2-NORM 
          0                 1           2             4    7     1       0.1118385925E-01       4    7    1         0.5880129532E+00      0.1318202341E+01
          0                 2           2             4    7     1      -0.1087887228E-02       4    7    1        -0.5880147709E-01      0.1318191491E+00
          0                 3           1             4    7     1       0.7408106197E-04       4    7    1         0.4116103447E-02      0.9227216766E-02

    ------------------------------------------------
       NWT REQUIRED            3 OUTER ITERATIONS 
       AND A TOTAL OF          5 INNER ITERATIONS.
    ------------------------------------------------

 NO OUTPUT CONTROL FOR STRESS PERIOD   13   TIME STEP   23
 
 SOLVING FOR HEAD 
                                                   Max.-Head-Change                         Max.-Flux-Residual
  Residual-Control   Outer-Iter.   Inner-Iter.     Column Row Layer    Maximum-Head-Change  Column Row Layer    Maximum-Flux-Residual          L2-NORM 
          0                 1           2             4    7     1       0.1105291163E-01       4    7    1         0.5810930953E+00      0.1305481190E+01
          0                 2           2             4    7     1      -0.1075149529E-02       4    7    1        -0.5810948686E-01      0.1305470829E+00
          0                 3           1             4    7     1       0.7321367324E-04       4    7    1         0.4067664164E-02      0.9138202756E-02

    ------------------------------------------------
       NWT REQUIRED            3 OUTER ITERATIONS 
       AND A TOTAL OF          5 INNER ITERATIONS.
    ------------------------------------------------

 NO OUTPUT CONTROL FOR STRESS PERIOD   13   TIME STEP   24
 
 SOLVING FOR HEAD 
                                                   Max.-Head-Change                         Max.-Flux-Residual
  Residual-Control   Outer-Iter.   Inner-Iter.     Column Row Layer    Maximum-Head-Change  Column Row Layer    Maximum-Flux-Residual          L2-NORM 
          0                 1           2             4    7     1       0.1092427873E-01       4    7    1         0.5742962713E+00      0.1292960185E+01
          0                 2           2             4    7     1      -0.1062636992E-02       4    7    1        -0.5742980014E-01      0.1292950205E+00
          0                 3           1             4    7     1       0.7236161645E-04       4    7    1         0.4020086124E-02      0.9050550451E-02

    ------------------------------------------------
       NWT REQUIRED            3 OUTER ITERATIONS 
       AND A TOTAL OF          5 INNER ITERATIONS.
    ------------------------------------------------

 NO OUTPUT CONTROL FOR STRESS PERIOD   13   TIME STEP   25
 
 SOLVING FOR HEAD 
                                                   Max.-Head-Change                         Max.-Flux-Residual
  Residual-Control   Outer-Iter.   Inner-Iter.     Column Row Layer    Maximum-Head-Change  Column Row Layer    Maximum-Flux-Residual          L2-NORM 
          0                 1           2             4    7     1       0.1079777504E-01       4    7    1         0.5676121110E+00      0.1280633177E+01
          0                 2           2             4    7     1      -0.1050331570E-02       4    7    1        -0.5676137989E-01      0.1280623777E+00
          0                 3           1             4    7     1       0.7152366313E-04       4    7    1         0.3973296712E-02      0.8964286922E-02

    ------------------------------------------------
       NWT REQUIRED            3 OUTER ITERATIONS 
       AND A TOTAL OF          5 INNER ITERATIONS.
    ------------------------------------------------

 NO OUTPUT CONTROL FOR STRESS PERIOD   13   TIME STEP   26
 
 SOLVING FOR HEAD 
                                                   Max.-Head-Change                         Max.-Flux-Residual
  Residual-Control   Outer-Iter.   Inner-Iter.     Column Row Layer    Maximum-Head-Change  Column Row Layer    Maximum-Flux-Residual          L2-NORM 
          0                 1           2             4    7     1       0.1067334972E-01       4    7    1         0.5610383467E+00      0.1268492619E+01
          0                 2           2             4    7     1      -0.1038228318E-02       4    7    1        -0.5610399938E-01      0.1268483545E+00
          0                 3           1             4    7     1       0.7069947734E-04       4    7    1         0.3927280099E-02      0.8879306098E-02

    ------------------------------------------------
       NWT REQUIRED            3 OUTER ITERATIONS 
       AND A TOTAL OF          5 INNER ITERATIONS.
    ------------------------------------------------

 NO OUTPUT CONTROL FOR STRESS PERIOD   13   TIME STEP   27
 
 SOLVING FOR HEAD 
                                                   Max.-Head-Change                         Max.-Flux-Residual
  Residual-Control   Outer-Iter.   Inner-Iter.     Column Row Layer    Maximum-Head-Change  Column Row Layer    Maximum-Flux-Residual          L2-NORM 
          0                 1           2             4    7     1       0.1055096044E-01       4    7    1         0.5545723428E+00      0.1256538235E+01
          0                 2           2             4    7     1      -0.1026323121E-02       4    7    1        -0.5545739502E-01      0.1256529447E+00
          0                 3           1             4    7     1       0.6988877802E-04       4    7    1         0.3882017809E-02      0.8795629432E-02

    ------------------------------------------------
       NWT REQUIRED            3 OUTER ITERATIONS 
       AND A TOTAL OF          5 INNER ITERATIONS.
    ------------------------------------------------

 NO OUTPUT CONTROL FOR STRESS PERIOD   13   TIME STEP   28
 
 SOLVING FOR HEAD 
                                                   Max.-Head-Change                         Max.-Flux-Residual
  Residual-Control   Outer-Iter.   Inner-Iter.     Column Row Layer    Maximum-Head-Change  Column Row Layer    Maximum-Flux-Residual          L2-NORM 
          0                 1           2             4    7     1       0.1043056522E-01       4    7    1         0.5482119045E+00      0.1244769481E+01
          0                 2           2             4    7     1      -0.1014655076E-02       4    7    1        -0.5482134730E-01      0.1245377032E+00
          0                 3           1             4    7     1       0.6909422786E-04       4    7    1         0.3837494489E-02      0.8717549678E-02

    ------------------------------------------------
       NWT REQUIRED            3 OUTER ITERATIONS 
       AND A TOTAL OF          5 INNER ITERATIONS.
    ------------------------------------------------

 NO OUTPUT CONTROL FOR STRESS PERIOD   13   TIME STEP   29
 
 SOLVING FOR HEAD 
                                                   Max.-Head-Change                         Max.-Flux-Residual
  Residual-Control   Outer-Iter.   Inner-Iter.     Column Row Layer    Maximum-Head-Change  Column Row Layer    Maximum-Flux-Residual          L2-NORM 
          0                 1           2             4    7     1       0.1031198370E-01       4    7    1         0.5419525597E+00      0.1233116137E+01
          0                 2           2             4    7     1      -0.1003077094E-02       4    7    1        -0.5419540917E-01      0.1233107855E+00
          0                 3           1             4    7     1       0.6830581061E-04       4    7    1         0.3793678820E-02      0.8631661526E-02

    ------------------------------------------------
       NWT REQUIRED            3 OUTER ITERATIONS 
       AND A TOTAL OF          5 INNER ITERATIONS.
    ------------------------------------------------

 NO OUTPUT CONTROL FOR STRESS PERIOD   13   TIME STEP   30



 STREAM LISTING     PERIOD     13   STEP       30

 LAYER ROW COL. STREAM  RCH.  FLOW INTO     FLOW TO   FLOW OUT OF   OVRLND.     DIRECT     STREAM       STREAM     STREAM     STREAM   STREAMBED  STREAMBED
                SEG.NO.  NO.  STRM. RCH.    AQUIFER    STRM. RCH.    RUNOFF     PRECIP       ET          HEAD       DEPTH      WIDTH   CONDCTNC.   GRADIENT

   1    1    1     1     1    8.6249E+00  1.3546E-01   8.4895E+00  0.000E+00  0.000E+00  0.000E+00  1.09390E+03  8.549E-01  7.809E+00  3.514E-02  1.285E+00
   1    2    2     1     2    8.4895E+00  2.0809E-01   8.2814E+00  0.000E+00  0.000E+00  0.000E+00  1.08891E+03  8.492E-01  7.723E+00  5.406E-02  1.283E+00
   1    3    3     1     3    8.2814E+00  1.7583E-01   8.1056E+00  0.000E+00  0.000E+00  0.000E+00  1.08326E+03  8.427E-01  7.626E+00  4.576E-02  1.281E+00
   1    3    4     1     4    8.1056E+00  1.6058E-01   7.9450E+00  0.000E+00  0.000E+00  0.000E+00  1.07824E+03  8.369E-01  7.541E+00  4.185E-02  1.279E+00
   1    4    5     2     1    5.9450E+00  2.7323E-01   5.6717E+00  0.000E+00  0.000E+00  0.000E+00  1.07244E+03  5.030E-01  1.200E+01  7.800E-02  1.168E+00
   1    5    6     2     2    5.6717E+00  2.0942E-01   5.4623E+00  0.000E+00  0.000E+00  0.000E+00  1.06700E+03  4.904E-01  1.200E+01  6.000E-02  1.163E+00
   1    6    6     2     3    5.4623E+00  2.0875E-01   5.2536E+00  0.000E+00  0.000E+00  0.000E+00  1.06227E+03  4.792E-01  1.200E+01  6.000E-02  1.160E+00
   1    7    6     2     4    5.2536E+00  2.0808E-01   5.0455E+00  0.000E+00  0.000E+00  0.000E+00  1.05754E+03  4.680E-01  1.200E+01  6.000E-02  1.156E+00
   1    8    6     2     5    5.0455E+00  2.0739E-01   4.8381E+00  0.000E+00  0.000E+00  0.000E+00  1.05282E+03  4.565E-01  1.200E+01  6.000E-02  1.152E+00
   1    3    5     3     1    2.0000E+00  2.8252E-01   1.7175E+00  0.000E+00  0.000E+00  0.000E+00  1.07555E+03  1.909E+00  9.636E+00  7.227E-02  1.955E+00
   1    3    6     3     2    1.7175E+00  2.4905E-01   1.4684E+00  0.000E+00  0.000E+00  0.000E+00  1.07264E+03  1.727E+00  8.909E+00  6.682E-02  1.864E+00
   1    3    7     3     3    1.4684E+00  1.9718E-01   1.2712E+00  0.000E+00  0.000E+00  0.000E+00  1.06987E+03  1.555E+00  8.218E+00  5.547E-02  1.777E+00
   1    4    8     3     4    1.2712E+00  2.2567E-01   1.0456E+00  0.000E+00  0.000E+00  0.000E+00  1.06682E+03  1.364E+00  7.455E+00  6.709E-02  1.682E+00
   1    5    8     3     5    1.0456E+00  1.5790E-01   8.8768E-01  0.000E+00  0.000E+00  0.000E+00  1.06362E+03  1.164E+00  6.655E+00  4.991E-02  1.582E+00
   1    6    8     3     6    8.8768E-01  5.5980E-02   8.3170E-01  0.000E+00  0.000E+00  0.000E+00  1.06158E+03  1.036E+00  6.145E+00  1.844E-02  1.518E+00
   1    5   10     4     1    1.0000E+01  9.0919E-02   9.9091E+00  0.000E+00  0.000E+00  0.000E+00  1.07836E+03  6.368E-01  1.000E+01  2.500E-02  1.212E+00
   1    5    9     4     2    9.9091E+00  1.8158E-01   9.7275E+00  0.000E+00  0.000E+00  0.000E+00  1.07154E+03  6.315E-01  1.000E+01  5.000E-02  1.211E+00
   1    6    8     4     3    9.7275E+00  1.2689E-01   9.6006E+00  0.000E+00  0.000E+00  0.000E+00  1.06381E+03  6.256E-01  1.000E+01  3.500E-02  1.209E+00
   1    6    8     5     1    1.0432E+01  2.2686E-01   1.0205E+01  0.000E+00  0.000E+00  0.000E+00  1.05868E+03  6.790E-01  1.542E+01  6.166E-02  1.226E+00
   1    7    7     5     2    1.0205E+01  2.7894E-01   9.9265E+00  0.000E+00  0.000E+00  0.000E+00  1.05417E+03  6.732E-01  1.519E+01  7.594E-02  1.224E+00
   1    8    7     5     3    9.9265E+00  1.9221E-01   9.7343E+00  0.000E+00  0.000E+00  0.000E+00  1.04992E+03  6.676E-01  1.497E+01  5.241E-02  1.223E+00
   1    8    6     5     4    9.7343E+00  1.3577E-01   9.5985E+00  0.000E+00  0.000E+00  0.000E+00  1.04691E+03  6.637E-01  1.482E+01  3.706E-02  1.221E+00
   1    9    6     6     1    1.4437E+01  2.3244E-01   1.4204E+01  0.000E+00  0.000E+00  0.000E+00  1.04360E+03  8.741E-01  1.200E+01  6.000E-02  1.291E+00
   1   10    7     6     2    1.4204E+01  2.3193E-01   1.3972E+01  0.000E+00  0.000E+00  0.000E+00  1.03905E+03  8.655E-01  1.200E+01  6.000E-02  1.289E+00
   1   11    7     6     3    1.3972E+01  2.3142E-01   1.3741E+01  0.000E+00  0.000E+00  0.000E+00  1.03449E+03  8.570E-01  1.200E+01  6.000E-02  1.286E+00
   1   12    7     6     4    1.3741E+01  2.3090E-01   1.3510E+01  0.000E+00  0.000E+00  0.000E+00  1.02994E+03  8.484E-01  1.200E+01  6.000E-02  1.283E+00
   1   13    7     6     5    1.3510E+01 -1.8611E-02   1.3529E+01  0.000E+00  0.000E+00  0.000E+00  1.02675E+03  8.444E-01  1.200E+01  2.400E-01 -2.585E-02
   1   14    9     7     1    1.5000E+02  1.3696E+00   1.4863E+02  0.000E+00  0.000E+00  0.000E+00  1.03987E+03  2.288E+00  5.529E+01  5.593E-01  8.162E-01
   1   13    8     7     2    1.4863E+02  1.9199E+00   1.4671E+02  0.000E+00  0.000E+00  0.000E+00  1.03478E+03  2.279E+00  5.525E+01  6.148E-01  1.041E+00
   1   13    7     7     3    1.4671E+02  1.5958E+00   1.4511E+02  0.000E+00  0.000E+00  0.000E+00  1.02969E+03  2.269E+00  5.521E+01  5.584E-01  9.526E-01
   1   13    6     8     1    1.5864E+02  9.7936E-01   1.5766E+02  0.000E+00  0.000E+00  0.000E+00  1.02475E+03  2.873E+00  4.166E+01  4.246E-01  7.689E-01
   1   13    5     8     2    1.5766E+02  2.3661E-01   1.5743E+02  0.000E+00  0.000E+00  0.000E+00  1.01849E+03  2.869E+00  4.160E+01  4.239E-01  1.860E-01
   1   13    4     8     3    1.5743E+02 -2.2184E+00   1.5965E+02  0.000E+00  0.000E+00  0.000E+00  1.01225E+03  2.876E+00  4.170E+01  4.249E+00 -1.740E-01
   1   13    3     8     4    1.5965E+02 -3.5374E+00   1.6318E+02  0.000E+00  0.000E+00  0.000E+00  1.00602E+03  2.895E+00  4.198E+01  4.278E+00 -2.756E-01
   1   13    2     8     5    1.6318E+02 -2.5504E+00   1.6573E+02  0.000E+00  0.000E+00  0.000E+00  9.99791E+02  2.916E+00  4.228E+01  4.308E+00 -1.973E-01
   1   13    1     8     6    1.6573E+02 -1.9729E+00   1.6771E+02  0.000E+00  0.000E+00  0.000E+00  9.94806E+02  2.931E+00  4.250E+01  2.598E+00 -2.531E-01
   1    8    6     9     1    0.0000E+00  0.0000E+00   0.0000E+00  0.000E+00  0.000E+00  0.000E+00  1.07875E+03  0.000E+00  4.000E+00  0.000E+00  1.000E+00
   1    8    5     9     2    0.0000E+00  0.0000E+00   0.0000E+00  0.000E+00  0.000E+00  0.000E+00  1.07825E+03  0.000E+00  4.000E+00  0.000E+00  1.000E+00





UNSATURATED ZONE PACKAGE VOLUMETRIC BUDGET FOR  TIME STEP    30 STRESS PERIOD   13
  ------------------------------------------------------------------------------



     CUMULATIVE VOLUMES      L**3       RATES FOR THIS TIME STEP      L**3/T
     ------------------                 ------------------------

           IN:                                      IN:
           ---                                      ---
        INFILTRATION =   538841840.7937          INFILTRATION =           4.4075

          OUT:                                     OUT:
          ----                                     ----
              UZF ET =   497547283.4053                UZF ET =           0.7250
        UZF RECHARGE =       73224.0000          UZF RECHARGE =       0.0000E+00

            IN - OUT =    41221333.3884              IN - OUT =           3.6825

          STORAGE:                                 STORAGE:
          --------                                 --------
      STORAGE CHANGE =    41221326.4895        STORAGE CHANGE =           3.6825

 PERCENT DISCREPANCY IS DIFFERENCE BETWEEN IN-OUT MINUS CHANGE IN STORAGE
 DIVIDED BY THE AVERAGE OF IN AND OUT TIMES 100

 PERCENT DISCREPANCY =           0.00     PERCENT DISCREPANCY =           0.00






1
  VOLUMETRIC BUDGET FOR AGRICULTURAL FIELDS AT  END OF TIME STEP   30, STRESS PERIOD  13
  ------------------------------------------------------------------------------

     CUMULATIVE VOLUMES      L**3       RATES FOR THIS TIME STEP      L**3/T
     ------------------                 ------------------------

           IN:                                      IN:
           ---                                      ---
               AG WELLS  =   174751168.0000                 AG WELLS  =           0.0000
      DIVERSION SEGMENTS =   224912208.0000        DIVERSION SEGMENTS =           0.0000
           GW IRRIGATION =           0.0000             GW IRRIGATION =           0.0000
           SW IRRIGATION =           0.0000             SW IRRIGATION =           0.0000
        SYSTEM LOSSES GW =           0.0000          SYSTEM LOSSES GW =           0.0000
        SYSTEM LOSSES SW =           0.0000          SYSTEM LOSSES SW =           0.0000

                TOTAL IN =   399663360.0000                  TOTAL IN =           0.0000

          OUT:                                     OUT:
          ----                                     ----
               AG WELLS  =           0.0000                 AG WELLS  =           0.0000
      DIVERSION SEGMENTS =           0.0000        DIVERSION SEGMENTS =           0.0000
           GW IRRIGATION =   174751168.0000             GW IRRIGATION =           0.0000
           SW IRRIGATION =   224916624.0000             SW IRRIGATION =           0.0000
        SYSTEM LOSSES GW =           0.0000          SYSTEM LOSSES GW =           0.0000
        SYSTEM LOSSES SW =           0.0000          SYSTEM LOSSES SW =           0.0000

               TOTAL OUT =   399667776.0000                 TOTAL OUT =           0.0000

                IN - OUT =       -4416.0000                  IN - OUT =           0.0000

     PERCENT DISCREPANCY =          -0.00         PERCENT DISCREPANCY =           0.00



1
  VOLUMETRIC BUDGET FOR ENTIRE MODEL AT END OF TIME STEP   30, STRESS PERIOD  13
  ------------------------------------------------------------------------------

     CUMULATIVE VOLUMES      L**3       RATES FOR THIS TIME STEP      L**3/T
     ------------------                 ------------------------

           IN:                                      IN:
           ---                                      ---
             STORAGE     =   251863760.0000               STORAGE     =           3.1258
       CONSTANT HEAD     =           0.0000         CONSTANT HEAD     =           0.0000
     HEAD DEP BOUNDS     =     9112144.0000       HEAD DEP BOUNDS     =           0.2881
      STREAM LEAKAGE     =   370474336.0000        STREAM LEAKAGE     =          11.2163
        UZF RECHARGE     =       73223.9531          UZF RECHARGE     =           0.0000
               GW ET     =           0.0000                 GW ET     =           0.0000
     SURFACE LEAKAGE     =           0.0000       SURFACE LEAKAGE     =           0.0000
           AG WELLS      =           0.0000             AG WELLS      =           0.0000

                TOTAL IN =   631523456.0000                  TOTAL IN =          14.6302

          OUT:                                     OUT:
          ----                                     ----
             STORAGE     =   120399080.0000               STORAGE     =           4.0452
       CONSTANT HEAD     =           0.0000         CONSTANT HEAD     =           0.0000
     HEAD DEP BOUNDS     =     9112192.0000       HEAD DEP BOUNDS     =           0.2875
      STREAM LEAKAGE     =   327243392.0000        STREAM LEAKAGE     =          10.2977
        UZF RECHARGE     =           0.0000          UZF RECHARGE     =           0.0000
               GW ET     =           0.0000                 GW ET     =           0.0000
     SURFACE LEAKAGE     =           0.0000       SURFACE LEAKAGE     =           0.0000
           AG WELLS      =   174751168.0000             AG WELLS      =           0.0000

               TOTAL OUT =   631505792.0000                 TOTAL OUT =          14.6304

                IN - OUT =       17664.0000                  IN - OUT =      -2.5940E-04

     PERCENT DISCREPANCY =           0.00         PERCENT DISCREPANCY =          -0.00






         TIME SUMMARY AT END OF TIME STEP   30 IN STRESS PERIOD   13
                    SECONDS     MINUTES      HOURS       DAYS        YEARS
                    -----------------------------------------------------------
   TIME STEP LENGTH  87667.      1461.1      24.352      1.0147     2.77799E-03
 STRESS PERIOD TIME 2.63000E+06  43833.      730.56      30.440     8.33397E-02
         TOTAL TIME 3.16463E+07 5.27439E+05  8790.6      366.28      1.0028    
1
1
                            STRESS PERIOD NO.   14, LENGTH =   2630000.    
                            -----------------------------------------------

                              NUMBER OF TIME STEPS =    30

                               MULTIPLIER FOR DELT =     1.000

                            INITIAL TIME STEP SIZE =   87666.66    

 REUSING NON-PARAMETER GHB CELLS FROM LAST STRESS PERIOD

      2 GHB CELLS

 REUSING STREAM SEGMENT DATA FROM LAST STRESS PERIOD



            AREAL INFILTRATION RATE
 READING ON UNIT   19 WITH FORMAT: (10F4.0)            

            1           2           3           4           5           6           7           8           9          10
 ........................................................................................................................
   1   1.2000E-09   0.000       0.000       0.000       0.000       0.000       0.000       0.000       0.000       0.000    
   2   2.1000E-09  2.0000E-09  8.0000E-10  8.5000E-09   0.000       0.000       0.000       0.000       0.000       0.000    
   3   5.0000E-10  1.1000E-09  8.8000E-09  5.5000E-09   0.000       0.000       0.000       0.000       0.000       0.000    
   4   8.5000E-09  1.1000E-09  1.1000E-09  1.1000E-09  2.0000E-09   0.000       0.000       0.000       0.000       0.000    
   5   8.5000E-09  1.1000E-09  1.1000E-09  1.1000E-09  1.1000E-09   0.000       0.000       0.000       0.000       0.000    
   6   8.5000E-09  5.2000E-09  2.1000E-09  1.1000E-09  1.5000E-09   0.000       0.000       0.000       0.000       0.000    
   7   8.5000E-09  5.2000E-09  2.1000E-09  1.2000E-09  2.0000E-09   0.000       0.000       0.000       0.000       0.000    
   8   5.0000E-10  5.2000E-09  2.1000E-09  1.2000E-09  5.0000E-09   0.000       0.000       0.000       0.000       0.000    
   9   5.0000E-10  5.2000E-09  2.1000E-09  1.2000E-09  5.0000E-09   0.000       0.000       0.000       0.000       0.000    
  10   5.0000E-10  5.2000E-09  2.1000E-09  1.2000E-09  5.8000E-09   0.000       0.000       0.000       0.000       0.000    
  11   1.0000E-10  1.1000E-09  1.1000E-09  1.2000E-09  5.0000E-09   0.000       0.000       0.000       0.000       0.000    
  12   1.1000E-09  1.1000E-09  1.1000E-09  1.1000E-09  2.0000E-09   0.000       0.000       0.000       0.000       0.000    
  13   1.1000E-09  2.2000E-09  2.2000E-09  2.1000E-09  1.0000E-09   0.000       0.000       0.000       0.000       0.000    
  14   2.0000E-10  5.5000E-09  5.5000E-09  5.2000E-09  1.0000E-09   0.000       0.000       0.000       0.000       0.000    
  15    0.000      8.8000E-09  8.8000E-09   0.000       0.000       0.000       0.000       0.000       0.000       0.000    

                  ET RATE =  5.000000E-10

 USING ET EXTINCTION DEPTH FROM PREVIOUS STRESS PERIOD. CURRENT PERIOD IS:      14

 USING EXTINCTION WATER CONTENT FROM PREVIOUS STRESS PERIOD. CURRENT PERIOD IS:      14

 USING AIR ENTRY PRESSURE FROM PREVIOUS STRESS PERIOD. CURRENT PERIOD IS:      14

 USING ROOT PRESSURE HEAD FROM PREVIOUS STRESS PERIOD. CURRENT PERIOD IS:      14

 USING ROOT ACTIVITY FROM PREVIOUS STRESS PERIOD. CURRENT PERIOD IS:      14

 PROCESSING AG STRESS PERIOD DATA

 READING AG STRESS PERIOD DATA

 READING IRRIGATION SEGMENT

 READING IRRIGATION WELL

 READING SUPPLEMENTAL WELL

 END PROCESSING AG STRESS PERIOD DATA OPTIONS
 
 SOLVING FOR HEAD 
                                                   Max.-Head-Change                         Max.-Flux-Residual
  Residual-Control   Outer-Iter.   Inner-Iter.     Column Row Layer    Maximum-Head-Change  Column Row Layer    Maximum-Flux-Residual          L2-NORM 
          0                 1           2             4    7     1       0.1019543942E-01       4    7    1         0.5357991937E+00      0.1223179248E+01
          0                 2           2             4    7     1      -0.9917404602E-03       4    7    1        -0.5358006897E-01      0.1223140850E+00
          0                 3           1             4    7     1       0.6753382879E-04       4    7    1         0.3750605046E-02      0.8561536382E-02

    ------------------------------------------------
       NWT REQUIRED            3 OUTER ITERATIONS 
       AND A TOTAL OF          5 INNER ITERATIONS.
    ------------------------------------------------

 NO OUTPUT CONTROL FOR STRESS PERIOD   14   TIME STEP    1
 
 SOLVING FOR HEAD 
                                                   Max.-Head-Change                         Max.-Flux-Residual
  Residual-Control   Outer-Iter.   Inner-Iter.     Column Row Layer    Maximum-Head-Change  Column Row Layer    Maximum-Flux-Residual          L2-NORM 
          0                 1           2             4    7     1       0.1008070094E-01       4    7    1         0.5297418085E+00      0.1215301123E+01
          0                 2           2             4    7     1      -0.9805794826E-03       4    7    1        -0.5297432696E-01      0.1215182154E+00
          0                 3           1             4    7     1       0.6677380784E-04       4    7    1         0.3708203102E-02      0.8505217621E-02

    ------------------------------------------------
       NWT REQUIRED            3 OUTER ITERATIONS 
       AND A TOTAL OF          5 INNER ITERATIONS.
    ------------------------------------------------

 NO OUTPUT CONTROL FOR STRESS PERIOD   14   TIME STEP    2
 
 SOLVING FOR HEAD 
                                                   Max.-Head-Change                         Max.-Flux-Residual
  Residual-Control   Outer-Iter.   Inner-Iter.     Column Row Layer    Maximum-Head-Change  Column Row Layer    Maximum-Flux-Residual          L2-NORM 
          0                 1           2             4    7     1       0.9967734547E-02       4    7    1         0.5237780513E+00      0.1203904859E+01
          0                 2           2             4    7     1      -0.9695908820E-03       4    7    1        -0.5237794783E-01      0.1203799810E+00
          0                 3           1             4    7     1       0.6602552529E-04       4    7    1         0.3666456583E-02      0.8425671009E-02

    ------------------------------------------------
       NWT REQUIRED            3 OUTER ITERATIONS 
       AND A TOTAL OF          5 INNER ITERATIONS.
    ------------------------------------------------

 NO OUTPUT CONTROL FOR STRESS PERIOD   14   TIME STEP    3
 
 SOLVING FOR HEAD 
                                                   Max.-Head-Change                         Max.-Flux-Residual
  Residual-Control   Outer-Iter.   Inner-Iter.     Column Row Layer    Maximum-Head-Change  Column Row Layer    Maximum-Flux-Residual          L2-NORM 
          0                 1           2             4    7     1       0.9856504731E-02       4    7    1         0.5179061739E+00      0.1192696798E+01
          0                 2           2             4    7     1      -0.9587712046E-03       4    7    1        -0.5179075676E-01      0.1192601796E+00
          0                 3           1             4    7     1       0.6528874590E-04       4    7    1         0.3625353222E-02      0.8347341941E-02

    ------------------------------------------------
       NWT REQUIRED            3 OUTER ITERATIONS 
       AND A TOTAL OF          5 INNER ITERATIONS.
    ------------------------------------------------

 NO OUTPUT CONTROL FOR STRESS PERIOD   14   TIME STEP    4
 
 SOLVING FOR HEAD 
                                                   Max.-Head-Change                         Max.-Flux-Residual
  Residual-Control   Outer-Iter.   Inner-Iter.     Column Row Layer    Maximum-Head-Change  Column Row Layer    Maximum-Flux-Residual          L2-NORM 
          0                 1           2             4    7     1       0.9747117033E-02       4    7    1         0.5121316886E+00      0.1181680371E+01
          0                 2           2             4    7     1      -0.9481307160E-03       4    7    1        -0.5121330499E-01      0.1181594578E+00
          0                 3           1             4    7     1       0.6456416854E-04       4    7    1         0.3584931606E-02      0.8270404696E-02

    ------------------------------------------------
       NWT REQUIRED            3 OUTER ITERATIONS 
       AND A TOTAL OF          5 INNER ITERATIONS.
    ------------------------------------------------

 NO OUTPUT CONTROL FOR STRESS PERIOD   14   TIME STEP    5
 
 SOLVING FOR HEAD 
                                                   Max.-Head-Change                         Max.-Flux-Residual
  Residual-Control   Outer-Iter.   Inner-Iter.     Column Row Layer    Maximum-Head-Change  Column Row Layer    Maximum-Flux-Residual          L2-NORM 
          0                 1           2             4    7     1       0.9639530656E-02       4    7    1         0.5064527147E+00      0.1170849551E+01
          0                 2           2             4    7     1      -0.9376654487E-03       4    7    1        -0.5064540446E-01      0.1170770903E+00
          0                 3           1             4    7     1       0.6385152296E-04       4    7    1         0.3545178581E-02      0.8194694973E-02

    ------------------------------------------------
       NWT REQUIRED            3 OUTER ITERATIONS 
       AND A TOTAL OF          5 INNER ITERATIONS.
    ------------------------------------------------

 NO OUTPUT CONTROL FOR STRESS PERIOD   14   TIME STEP    6
 
 SOLVING FOR HEAD 
                                                   Max.-Head-Change                         Max.-Flux-Residual
  Residual-Control   Outer-Iter.   Inner-Iter.     Column Row Layer    Maximum-Head-Change  Column Row Layer    Maximum-Flux-Residual          L2-NORM 
          0                 1           2             4    7     1       0.9533442115E-02       4    7    1         0.5008524299E+00      0.1160184884E+01
          0                 2           2             4    7     1      -0.9273458807E-03       4    7    1        -0.5008537289E-01      0.1160114737E+00
          0                 3           1             4    7     1       0.6314879919E-04       4    7    1         0.3505976381E-02      0.8120113983E-02

    ------------------------------------------------
       NWT REQUIRED            3 OUTER ITERATIONS 
       AND A TOTAL OF          5 INNER ITERATIONS.
    ------------------------------------------------

 NO OUTPUT CONTROL FOR STRESS PERIOD   14   TIME STEP    7
 
 SOLVING FOR HEAD 
                                                   Max.-Head-Change                         Max.-Flux-Residual
  Residual-Control   Outer-Iter.   Inner-Iter.     Column Row Layer    Maximum-Head-Change  Column Row Layer    Maximum-Flux-Residual          L2-NORM 
          0                 1           2             4    7     1       0.9429094036E-02       4    7    1         0.4953445125E+00      0.1149691965E+01
          0                 2           2             4    7     1      -0.9171956131E-03       4    7    1        -0.4953457812E-01      0.1149628976E+00
          0                 3           1             4    7     1       0.6245760401E-04       4    7    1         0.3467420766E-02      0.8046843857E-02

    ------------------------------------------------
       NWT REQUIRED            3 OUTER ITERATIONS 
       AND A TOTAL OF          5 INNER ITERATIONS.
    ------------------------------------------------

 NO OUTPUT CONTROL FOR STRESS PERIOD   14   TIME STEP    8
 
 SOLVING FOR HEAD 
                                                   Max.-Head-Change                         Max.-Flux-Residual
  Residual-Control   Outer-Iter.   Inner-Iter.     Column Row Layer    Maximum-Head-Change  Column Row Layer    Maximum-Flux-Residual          L2-NORM 
          0                 1           2             4    7     1       0.9326450252E-02       4    7    1         0.4899268357E+00      0.1139358327E+01
          0                 2           2             4    7     1      -0.9072111286E-03       4    7    1        -0.4899280753E-01      0.1139300201E+00
          0                 3           1             4    7     1       0.6177769803E-04       4    7    1         0.3429496829E-02      0.7974526202E-02

    ------------------------------------------------
       NWT REQUIRED            3 OUTER ITERATIONS 
       AND A TOTAL OF          5 INNER ITERATIONS.
    ------------------------------------------------

 NO OUTPUT CONTROL FOR STRESS PERIOD   14   TIME STEP    9
 
 SOLVING FOR HEAD 
                                                   Max.-Head-Change                         Max.-Flux-Residual
  Residual-Control   Outer-Iter.   Inner-Iter.     Column Row Layer    Maximum-Head-Change  Column Row Layer    Maximum-Flux-Residual          L2-NORM 
          0                 1           2             4    7     1       0.9225339079E-02       4    7    1         0.4845901703E+00      0.1129190003E+01
          0                 2           2             4    7     1      -0.8973757262E-03       4    7    1        -0.4845913813E-01      0.1129136526E+00
          0                 3           1             4    7     1       0.6110794403E-04       4    7    1         0.3392139990E-02      0.7903433821E-02

    ------------------------------------------------
       NWT REQUIRED            3 OUTER ITERATIONS 
       AND A TOTAL OF          5 INNER ITERATIONS.
    ------------------------------------------------

 NO OUTPUT CONTROL FOR STRESS PERIOD   14   TIME STEP   10
 
 SOLVING FOR HEAD 
                                                   Max.-Head-Change                         Max.-Flux-Residual
  Residual-Control   Outer-Iter.   Inner-Iter.     Column Row Layer    Maximum-Head-Change  Column Row Layer    Maximum-Flux-Residual          L2-NORM 
          0                 1           2             4    7     1       0.9125733023E-02       4    7    1         0.4793329684E+00      0.1119174116E+01
          0                 2           2             4    7     1      -0.8876867319E-03       4    7    1        -0.4793341517E-01      0.1119125395E+00
          0                 3           1             4    7     1       0.6044816001E-04       4    7    1         0.3355339403E-02      0.7833409559E-02

    ------------------------------------------------
       NWT REQUIRED            3 OUTER ITERATIONS 
       AND A TOTAL OF          5 INNER ITERATIONS.
    ------------------------------------------------

 NO OUTPUT CONTROL FOR STRESS PERIOD   14   TIME STEP   11
 
 SOLVING FOR HEAD 
                                                   Max.-Head-Change                         Max.-Flux-Residual
  Residual-Control   Outer-Iter.   Inner-Iter.     Column Row Layer    Maximum-Head-Change  Column Row Layer    Maximum-Flux-Residual          L2-NORM 
          0                 1           2             4    7     1       0.9027740144E-02       4    7    1         0.4741611587E+00      0.1109311105E+01
          0                 2           2             4    7     1      -0.8781546565E-03       4    7    1        -0.4741623149E-01      0.1109266846E+00
          0                 3           1             4    7     1       0.5979906119E-04       4    7    1         0.3319136535E-02      0.7764477749E-02

    ------------------------------------------------
       NWT REQUIRED            3 OUTER ITERATIONS 
       AND A TOTAL OF          5 INNER ITERATIONS.
    ------------------------------------------------

 NO OUTPUT CONTROL FOR STRESS PERIOD   14   TIME STEP   12
 
 SOLVING FOR HEAD 
                                                   Max.-Head-Change                         Max.-Flux-Residual
  Residual-Control   Outer-Iter.   Inner-Iter.     Column Row Layer    Maximum-Head-Change  Column Row Layer    Maximum-Flux-Residual          L2-NORM 
          0                 1           2             4    7     1       0.8931323135E-02       4    7    1         0.4690729900E+00      0.1099593264E+01
          0                 2           2             4    7     1      -0.8687758713E-03       4    7    1        -0.4690741197E-01      0.1099551921E+00
          0                 3           1             4    7     1       0.5916040109E-04       4    7    1         0.3283519181E-02      0.7696463597E-02

    ------------------------------------------------
       NWT REQUIRED            3 OUTER ITERATIONS 
       AND A TOTAL OF          5 INNER ITERATIONS.
    ------------------------------------------------

 NO OUTPUT CONTROL FOR STRESS PERIOD   14   TIME STEP   13
 
 SOLVING FOR HEAD 
                                                   Max.-Head-Change                         Max.-Flux-Residual
  Residual-Control   Outer-Iter.   Inner-Iter.     Column Row Layer    Maximum-Head-Change  Column Row Layer    Maximum-Flux-Residual          L2-NORM 
          0                 1           2             4    7     1       0.8836315998E-02       4    7    1         0.4640591735E+00      0.1090015132E+01
          0                 2           2             4    7     1      -0.8595342293E-03       4    7    1        -0.4640602776E-01      0.1089977432E+00
          0                 3           1             4    7     1       0.5853107976E-04       4    7    1         0.3248422286E-02      0.7629485521E-02

    ------------------------------------------------
       NWT REQUIRED            3 OUTER ITERATIONS 
       AND A TOTAL OF          5 INNER ITERATIONS.
    ------------------------------------------------

 NO OUTPUT CONTROL FOR STRESS PERIOD   14   TIME STEP   14
 
 SOLVING FOR HEAD 
                                                   Max.-Head-Change                         Max.-Flux-Residual
  Residual-Control   Outer-Iter.   Inner-Iter.     Column Row Layer    Maximum-Head-Change  Column Row Layer    Maximum-Flux-Residual          L2-NORM 
          0                 1           2             4    7     1       0.8742689618E-02       4    7    1         0.4591184568E+00      0.1080577240E+01
          0                 2           2             4    7     1      -0.8504268987E-03       4    7    1        -0.4591195359E-01      0.1080542512E+00
          0                 3           1             4    7     1       0.5791090479E-04       4    7    1         0.3213837111E-02      0.7563441765E-02

    ------------------------------------------------
       NWT REQUIRED            3 OUTER ITERATIONS 
       AND A TOTAL OF          5 INNER ITERATIONS.
    ------------------------------------------------

 NO OUTPUT CONTROL FOR STRESS PERIOD   14   TIME STEP   15
 
 SOLVING FOR HEAD 
                                                   Max.-Head-Change                         Max.-Flux-Residual
  Residual-Control   Outer-Iter.   Inner-Iter.     Column Row Layer    Maximum-Head-Change  Column Row Layer    Maximum-Flux-Residual          L2-NORM 
          0                 1           2             4    7     1       0.8650691205E-02       4    7    1         0.4542640395E+00      0.1071284862E+01
          0                 2           2             4    7     1      -0.8414779257E-03       4    7    1        -0.4542650941E-01      0.1071252903E+00
          0                 3           1             4    7     1       0.5730151336E-04       4    7    1         0.3179856040E-02      0.7498474904E-02

    ------------------------------------------------
       NWT REQUIRED            3 OUTER ITERATIONS 
       AND A TOTAL OF          5 INNER ITERATIONS.
    ------------------------------------------------

 NO OUTPUT CONTROL FOR STRESS PERIOD   14   TIME STEP   16
 
 SOLVING FOR HEAD 
                                                   Max.-Head-Change                         Max.-Flux-Residual
  Residual-Control   Outer-Iter.   Inner-Iter.     Column Row Layer    Maximum-Head-Change  Column Row Layer    Maximum-Flux-Residual          L2-NORM 
          0                 1           2             4    7     1       0.8559878572E-02       4    7    1         0.4494719658E+00      0.1062116979E+01
          0                 2           2             4    7     1      -0.8326442978E-03       4    7    1        -0.4494729968E-01      0.1062086900E+00
          0                 3           1             4    7     1       0.5669997653E-04       4    7    1         0.3146311369E-02      0.7434348728E-02

    ------------------------------------------------
       NWT REQUIRED            3 OUTER ITERATIONS 
       AND A TOTAL OF          5 INNER ITERATIONS.
    ------------------------------------------------

 NO OUTPUT CONTROL FOR STRESS PERIOD   14   TIME STEP   17
 
 SOLVING FOR HEAD 
                                                   Max.-Head-Change                         Max.-Flux-Residual
  Residual-Control   Outer-Iter.   Inner-Iter.     Column Row Layer    Maximum-Head-Change  Column Row Layer    Maximum-Flux-Residual          L2-NORM 
          0                 1           2             4    7     1       0.8470636429E-02       4    7    1         0.4447634376E+00      0.1053082250E+01
          0                 2           2             4    7     1      -0.8260130627E-03       4    7    1        -0.4460562088E-01      0.1053468403E+00
          0                 3           1             4    7     1       0.5624841197E-04       4    7    1         0.3122393721E-02      0.7374023040E-02

    ------------------------------------------------
       NWT REQUIRED            3 OUTER ITERATIONS 
       AND A TOTAL OF          5 INNER ITERATIONS.
    ------------------------------------------------

 NO OUTPUT CONTROL FOR STRESS PERIOD   14   TIME STEP   18
 
 SOLVING FOR HEAD 
                                                   Max.-Head-Change                         Max.-Flux-Residual
  Residual-Control   Outer-Iter.   Inner-Iter.     Column Row Layer    Maximum-Head-Change  Column Row Layer    Maximum-Flux-Residual          L2-NORM 
          0                 1           2             4    7     1       0.8378353573E-02       4    7    1         0.4400123187E+00      0.1044136603E+01
          0                 2           2             4    7     1      -0.8149869630E-03       4    7    1        -0.4400134193E-01      0.1044110543E+00
          0                 3           1             4    7     1       0.5549757655E-04       4    7    1         0.3080094238E-02      0.7308525138E-02

    ------------------------------------------------
       NWT REQUIRED            3 OUTER ITERATIONS 
       AND A TOTAL OF          5 INNER ITERATIONS.
    ------------------------------------------------

 NO OUTPUT CONTROL FOR STRESS PERIOD   14   TIME STEP   19
 
 SOLVING FOR HEAD 
                                                   Max.-Head-Change                         Max.-Flux-Residual
  Residual-Control   Outer-Iter.   Inner-Iter.     Column Row Layer    Maximum-Head-Change  Column Row Layer    Maximum-Flux-Residual          L2-NORM 
          0                 1           2             4    7     1       0.8289730850E-02       4    7    1         0.4353294705E+00      0.1035319971E+01
          0                 2           2             4    7     1      -0.8063663467E-03       4    7    1        -0.4353305428E-01      0.1035295150E+00
          0                 3           1             4    7     1       0.5491054447E-04       4    7    1         0.3047314088E-02      0.7246804808E-02

    ------------------------------------------------
       NWT REQUIRED            3 OUTER ITERATIONS 
       AND A TOTAL OF          5 INNER ITERATIONS.
    ------------------------------------------------

 NO OUTPUT CONTROL FOR STRESS PERIOD   14   TIME STEP   20
 
 SOLVING FOR HEAD 
                                                   Max.-Head-Change                         Max.-Flux-Residual
  Residual-Control   Outer-Iter.   Inner-Iter.     Column Row Layer    Maximum-Head-Change  Column Row Layer    Maximum-Flux-Residual          L2-NORM 
          0                 1           2             4    7     1       0.8202486031E-02       4    7    1         0.4307197775E+00      0.1026623834E+01
          0                 2           2             4    7     1      -0.7978797643E-03       4    7    1        -0.4307208222E-01      0.1026600720E+00
          0                 3           1             4    7     1       0.5433264029E-04       4    7    1         0.3015046069E-02      0.7185989473E-02

    ------------------------------------------------
       NWT REQUIRED            3 OUTER ITERATIONS 
       AND A TOTAL OF          5 INNER ITERATIONS.
    ------------------------------------------------

 NO OUTPUT CONTROL FOR STRESS PERIOD   14   TIME STEP   21
 
 SOLVING FOR HEAD 
                                                   Max.-Head-Change                         Max.-Flux-Residual
  Residual-Control   Outer-Iter.   Inner-Iter.     Column Row Layer    Maximum-Head-Change  Column Row Layer    Maximum-Flux-Residual          L2-NORM 
          0                 1           2             4    7     1       0.8116856655E-02       4    7    1         0.4261962377E+00      0.1018060824E+01
          0                 2           2             4    7     1      -0.7895503219E-03       4    7    1        -0.4261972560E-01      0.1018038718E+00
          0                 3           1             4    7     1       0.5376543647E-04       4    7    1         0.2983381113E-02      0.7126037898E-02

    ------------------------------------------------
       NWT REQUIRED            3 OUTER ITERATIONS 
       AND A TOTAL OF          5 INNER ITERATIONS.
    ------------------------------------------------

 NO OUTPUT CONTROL FOR STRESS PERIOD   14   TIME STEP   22
 
 SOLVING FOR HEAD 
                                                   Max.-Head-Change                         Max.-Flux-Residual
  Residual-Control   Outer-Iter.   Inner-Iter.     Column Row Layer    Maximum-Head-Change  Column Row Layer    Maximum-Flux-Residual          L2-NORM 
          0                 1           2             4    7     1       0.8032525205E-02       4    7    1         0.4217417452E+00      0.1009606849E+01
          0                 2           2             4    7     1      -0.7813471333E-03       4    7    1        -0.4217427376E-01      0.1009586381E+00
          0                 3           1             4    7     1       0.5320683003E-04       4    7    1         0.2952199498E-02      0.7066926031E-02

    ------------------------------------------------
       NWT REQUIRED            3 OUTER ITERATIONS 
       AND A TOTAL OF          5 INNER ITERATIONS.
    ------------------------------------------------

 NO OUTPUT CONTROL FOR STRESS PERIOD   14   TIME STEP   23
 
 SOLVING FOR HEAD 
                                                   Max.-Head-Change                         Max.-Flux-Residual
  Residual-Control   Outer-Iter.   Inner-Iter.     Column Row Layer    Maximum-Head-Change  Column Row Layer    Maximum-Flux-Residual          L2-NORM 
          0                 1           2             4    7     1       0.7949464399E-02       4    7    1         0.4173545481E+00      0.1001271934E+01
          0                 2           2             4    7     1      -0.7732675450E-03       4    7    1        -0.4173555155E-01      0.1001252446E+00
          0                 3           1             4    7     1       0.5265664053E-04       4    7    1         0.2921488961E-02      0.7008590312E-02

    ------------------------------------------------
       NWT REQUIRED            3 OUTER ITERATIONS 
       AND A TOTAL OF          5 INNER ITERATIONS.
    ------------------------------------------------

 NO OUTPUT CONTROL FOR STRESS PERIOD   14   TIME STEP   24
 
 SOLVING FOR HEAD 
                                                   Max.-Head-Change                         Max.-Flux-Residual
  Residual-Control   Outer-Iter.   Inner-Iter.     Column Row Layer    Maximum-Head-Change  Column Row Layer    Maximum-Flux-Residual          L2-NORM 
          0                 1           2             4    7     1       0.7867911092E-02       4    7    1         0.4130479435E+00      0.9930514657E+00
          0                 2           2             4    7     1      -0.7653345968E-03       4    7    1        -0.4130488871E-01      0.9930329935E-01
          0                 3           1             4    7     1       0.5211643651E-04       4    7    1         0.2891342573E-02      0.6951070763E-02

    ------------------------------------------------
       NWT REQUIRED            3 OUTER ITERATIONS 
       AND A TOTAL OF          5 INNER ITERATIONS.
    ------------------------------------------------

 NO OUTPUT CONTROL FOR STRESS PERIOD   14   TIME STEP   25
 
 SOLVING FOR HEAD 
                                                   Max.-Head-Change                         Max.-Flux-Residual
  Residual-Control   Outer-Iter.   Inner-Iter.     Column Row Layer    Maximum-Head-Change  Column Row Layer    Maximum-Flux-Residual          L2-NORM 
          0                 1           2             4    7     1       0.7787559155E-02       4    7    1         0.4088047888E+00      0.9849493830E+00
          0                 2           2             4    7     1      -0.7575185098E-03       4    7    1        -0.4088057089E-01      0.9849318073E-01
          0                 3           1             4    7     1       0.5158419027E-04       4    7    1         0.2861640327E-02      0.6894368328E-02

    ------------------------------------------------
       NWT REQUIRED            3 OUTER ITERATIONS 
       AND A TOTAL OF          5 INNER ITERATIONS.
    ------------------------------------------------

 NO OUTPUT CONTROL FOR STRESS PERIOD   14   TIME STEP   26
 
 SOLVING FOR HEAD 
                                                   Max.-Head-Change                         Max.-Flux-Residual
  Residual-Control   Outer-Iter.   Inner-Iter.     Column Row Layer    Maximum-Head-Change  Column Row Layer    Maximum-Flux-Residual          L2-NORM 
          0                 1           2             4    7     1       0.7708513852E-02       4    7    1         0.4046312795E+00      0.9769541204E+00
          0                 2           2             4    7     1      -0.7498295237E-03       4    7    1        -0.4046321767E-01      0.9769374664E-01
          0                 3           1             4    7     1       0.5106059918E-04       4    7    1         0.2832425620E-02      0.6838430106E-02

    ------------------------------------------------
       NWT REQUIRED            3 OUTER ITERATIONS 
       AND A TOTAL OF          5 INNER ITERATIONS.
    ------------------------------------------------

 NO OUTPUT CONTROL FOR STRESS PERIOD   14   TIME STEP   27
 
 SOLVING FOR HEAD 
                                                   Max.-Head-Change                         Max.-Flux-Residual
  Residual-Control   Outer-Iter.   Inner-Iter.     Column Row Layer    Maximum-Head-Change  Column Row Layer    Maximum-Flux-Residual          L2-NORM 
          0                 1           2             4    7     1       0.7630743331E-02       4    7    1         0.4005255172E+00      0.9690694462E+00
          0                 2           2             4    7     1      -0.7422645400E-03       4    7    1        -0.4005263923E-01      0.9690535803E-01
          0                 3           1             4    7     1       0.5054545223E-04       4    7    1         0.2803685134E-02      0.6783231706E-02

    ------------------------------------------------
       NWT REQUIRED            3 OUTER ITERATIONS 
       AND A TOTAL OF          5 INNER ITERATIONS.
    ------------------------------------------------

 NO OUTPUT CONTROL FOR STRESS PERIOD   14   TIME STEP   28
 
 SOLVING FOR HEAD 
                                                   Max.-Head-Change                         Max.-Flux-Residual
  Residual-Control   Outer-Iter.   Inner-Iter.     Column Row Layer    Maximum-Head-Change  Column Row Layer    Maximum-Flux-Residual          L2-NORM 
          0                 1           2             4    7     1       0.7554081235E-02       4    7    1         0.3964784941E+00      0.9612876737E+00
          0                 2           2             4    7     1      -0.7348073767E-03       4    7    1        -0.3964793478E-01      0.9612721407E-01
          0                 3           1             4    7     1       0.5003764724E-04       4    7    1         0.2775355821E-02      0.6728761675E-02

    ------------------------------------------------
       NWT REQUIRED            3 OUTER ITERATIONS 
       AND A TOTAL OF          5 INNER ITERATIONS.
    ------------------------------------------------

 NO OUTPUT CONTROL FOR STRESS PERIOD   14   TIME STEP   29
 
 SOLVING FOR HEAD 
                                                   Max.-Head-Change                         Max.-Flux-Residual
  Residual-Control   Outer-Iter.   Inner-Iter.     Column Row Layer    Maximum-Head-Change  Column Row Layer    Maximum-Flux-Residual          L2-NORM 
          0                 1           2             4    7     1       0.7478775164E-02       4    7    1         0.3925036541E+00      0.9536154974E+00
          0                 2           2             4    7     1      -0.7274821193E-03       4    7    1        -0.3925044873E-01      0.9535999708E-01
          0                 3           1             4    7     1       0.4953882459E-04       4    7    1         0.2747531807E-02      0.6675098075E-02

    ------------------------------------------------
       NWT REQUIRED            3 OUTER ITERATIONS 
       AND A TOTAL OF          5 INNER ITERATIONS.
    ------------------------------------------------

 NO OUTPUT CONTROL FOR STRESS PERIOD   14   TIME STEP   30



 STREAM LISTING     PERIOD     14   STEP       30

 LAYER ROW COL. STREAM  RCH.  FLOW INTO     FLOW TO   FLOW OUT OF   OVRLND.     DIRECT     STREAM       STREAM     STREAM     STREAM   STREAMBED  STREAMBED
                SEG.NO.  NO.  STRM. RCH.    AQUIFER    STRM. RCH.    RUNOFF     PRECIP       ET          HEAD       DEPTH      WIDTH   CONDCTNC.   GRADIENT

   1    1    1     1     1    7.1251E+00  1.2038E-01   7.0047E+00  0.000E+00  0.000E+00  0.000E+00  1.09385E+03  8.024E-01  7.035E+00  3.166E-02  1.267E+00
   1    2    2     1     2    7.0047E+00  1.8492E-01   6.8198E+00  0.000E+00  0.000E+00  0.000E+00  1.08886E+03  7.976E-01  6.956E+00  4.869E-02  1.266E+00
   1    3    3     1     3    6.8198E+00  1.5635E-01   6.6635E+00  0.000E+00  0.000E+00  0.000E+00  1.08321E+03  7.929E-01  6.870E+00  4.122E-02  1.264E+00
   1    3    4     1     4    6.6635E+00  1.4286E-01   6.5206E+00  0.000E+00  0.000E+00  0.000E+00  1.07820E+03  7.886E-01  6.794E+00  3.771E-02  1.263E+00
   1    4    5     2     1    4.5206E+00  2.6715E-01   4.2534E+00  0.000E+00  0.000E+00  0.000E+00  1.07236E+03  4.251E-01  1.200E+01  7.800E-02  1.142E+00
   1    5    6     2     2    4.2534E+00  2.0467E-01   4.0488E+00  0.000E+00  0.000E+00  0.000E+00  1.06692E+03  4.112E-01  1.200E+01  6.000E-02  1.137E+00
   1    6    6     2     3    4.0488E+00  2.0394E-01   3.8448E+00  0.000E+00  0.000E+00  0.000E+00  1.06219E+03  3.989E-01  1.200E+01  6.000E-02  1.133E+00
   1    7    6     2     4    3.8448E+00  2.0319E-01   3.6417E+00  0.000E+00  0.000E+00  0.000E+00  1.05746E+03  3.865E-01  1.200E+01  6.000E-02  1.129E+00
   1    8    6     2     5    3.6417E+00  2.0242E-01   3.4392E+00  0.000E+00  0.000E+00  0.000E+00  1.05273E+03  3.737E-01  1.200E+01  6.000E-02  1.125E+00
   1    3    5     3     1    2.0000E+00  2.8252E-01   1.7175E+00  0.000E+00  0.000E+00  0.000E+00  1.07555E+03  1.909E+00  9.636E+00  7.227E-02  1.955E+00
   1    3    6     3     2    1.7175E+00  2.4905E-01   1.4684E+00  0.000E+00  0.000E+00  0.000E+00  1.07264E+03  1.727E+00  8.909E+00  6.682E-02  1.864E+00
   1    3    7     3     3    1.4684E+00  1.9718E-01   1.2712E+00  0.000E+00  0.000E+00  0.000E+00  1.06987E+03  1.555E+00  8.218E+00  5.547E-02  1.777E+00
   1    4    8     3     4    1.2712E+00  2.2567E-01   1.0456E+00  0.000E+00  0.000E+00  0.000E+00  1.06682E+03  1.364E+00  7.455E+00  6.709E-02  1.682E+00
   1    5    8     3     5    1.0456E+00  1.5790E-01   8.8768E-01  0.000E+00  0.000E+00  0.000E+00  1.06362E+03  1.164E+00  6.655E+00  4.991E-02  1.582E+00
   1    6    8     3     6    8.8768E-01  5.5980E-02   8.3170E-01  0.000E+00  0.000E+00  0.000E+00  1.06158E+03  1.036E+00  6.145E+00  1.844E-02  1.518E+00
   1    5   10     4     1    1.0000E+01  9.0919E-02   9.9091E+00  0.000E+00  0.000E+00  0.000E+00  1.07836E+03  6.368E-01  1.000E+01  2.500E-02  1.212E+00
   1    5    9     4     2    9.9091E+00  1.8158E-01   9.7275E+00  0.000E+00  0.000E+00  0.000E+00  1.07154E+03  6.315E-01  1.000E+01  5.000E-02  1.211E+00
   1    6    8     4     3    9.7275E+00  1.2689E-01   9.6006E+00  0.000E+00  0.000E+00  0.000E+00  1.06381E+03  6.256E-01  1.000E+01  3.500E-02  1.209E+00
   1    6    8     5     1    1.0432E+01  2.2686E-01   1.0205E+01  0.000E+00  0.000E+00  0.000E+00  1.05868E+03  6.790E-01  1.542E+01  6.166E-02  1.226E+00
   1    7    7     5     2    1.0205E+01  2.7894E-01   9.9265E+00  0.000E+00  0.000E+00  0.000E+00  1.05417E+03  6.732E-01  1.519E+01  7.594E-02  1.224E+00
   1    8    7     5     3    9.9265E+00  1.9221E-01   9.7343E+00  0.000E+00  0.000E+00  0.000E+00  1.04992E+03  6.676E-01  1.497E+01  5.241E-02  1.223E+00
   1    8    6     5     4    9.7343E+00  1.3577E-01   9.5985E+00  0.000E+00  0.000E+00  0.000E+00  1.04691E+03  6.637E-01  1.482E+01  3.706E-02  1.221E+00
   1    9    6     6     1    1.3038E+01  2.2931E-01   1.2808E+01  0.000E+00  0.000E+00  0.000E+00  1.04355E+03  8.218E-01  1.200E+01  6.000E-02  1.274E+00
   1   10    7     6     2    1.2808E+01  2.2878E-01   1.2580E+01  0.000E+00  0.000E+00  0.000E+00  1.03899E+03  8.131E-01  1.200E+01  6.000E-02  1.271E+00
   1   11    7     6     3    1.2580E+01  2.2826E-01   1.2351E+01  0.000E+00  0.000E+00  0.000E+00  1.03444E+03  8.043E-01  1.200E+01  6.000E-02  1.268E+00
   1   12    7     6     4    1.2351E+01  2.2772E-01   1.2124E+01  0.000E+00  0.000E+00  0.000E+00  1.02989E+03  7.954E-01  1.200E+01  6.000E-02  1.265E+00
   1   13    7     6     5    1.2124E+01 -2.8103E-02   1.2152E+01  0.000E+00  0.000E+00  0.000E+00  1.02670E+03  7.915E-01  1.200E+01  2.400E-01 -3.903E-02
   1   14    9     7     1    1.5000E+02  1.3698E+00   1.4863E+02  0.000E+00  0.000E+00  0.000E+00  1.03987E+03  2.288E+00  5.529E+01  5.593E-01  8.164E-01
   1   13    8     7     2    1.4863E+02  1.9218E+00   1.4671E+02  0.000E+00  0.000E+00  0.000E+00  1.03478E+03  2.279E+00  5.525E+01  6.148E-01  1.042E+00
   1   13    7     7     3    1.4671E+02  1.6032E+00   1.4511E+02  0.000E+00  0.000E+00  0.000E+00  1.02969E+03  2.269E+00  5.521E+01  5.584E-01  9.570E-01
   1   13    6     8     1    1.5726E+02  9.7923E-01   1.5628E+02  0.000E+00  0.000E+00  0.000E+00  1.02474E+03  2.864E+00  4.153E+01  4.232E-01  7.714E-01
   1   13    5     8     2    1.5628E+02  2.3887E-01   1.5604E+02  0.000E+00  0.000E+00  0.000E+00  1.01848E+03  2.860E+00  4.147E+01  4.225E-01  1.884E-01
   1   13    4     8     3    1.5604E+02 -2.2061E+00   1.5824E+02  0.000E+00  0.000E+00  0.000E+00  1.01224E+03  2.866E+00  4.156E+01  4.235E+00 -1.736E-01
   1   13    3     8     4    1.5824E+02 -3.5310E+00   1.6178E+02  0.000E+00  0.000E+00  0.000E+00  1.00601E+03  2.886E+00  4.185E+01  4.264E+00 -2.760E-01
   1   13    2     8     5    1.6178E+02 -2.5510E+00   1.6433E+02  0.000E+00  0.000E+00  0.000E+00  9.99781E+02  2.906E+00  4.214E+01  4.294E+00 -1.980E-01
   1   13    1     8     6    1.6433E+02 -1.9743E+00   1.6630E+02  0.000E+00  0.000E+00  0.000E+00  9.94796E+02  2.921E+00  4.236E+01  2.590E+00 -2.541E-01
   1    8    6     9     1    0.0000E+00  0.0000E+00   0.0000E+00  0.000E+00  0.000E+00  0.000E+00  1.07875E+03  0.000E+00  4.000E+00  0.000E+00  1.000E+00
   1    8    5     9     2    0.0000E+00  0.0000E+00   0.0000E+00  0.000E+00  0.000E+00  0.000E+00  1.07825E+03  0.000E+00  4.000E+00  0.000E+00  1.000E+00





UNSATURATED ZONE PACKAGE VOLUMETRIC BUDGET FOR  TIME STEP    30 STRESS PERIOD   14
  ------------------------------------------------------------------------------



     CUMULATIVE VOLUMES      L**3       RATES FOR THIS TIME STEP      L**3/T
     ------------------                 ------------------------

           IN:                                      IN:
           ---                                      ---
        INFILTRATION =   550433565.3518          INFILTRATION =           4.4075

          OUT:                                     OUT:
          ----                                     ----
              UZF ET =   499454033.2791                UZF ET =           0.7250
        UZF RECHARGE =       73224.0000          UZF RECHARGE =       0.0000E+00

            IN - OUT =    50906308.0728              IN - OUT =           3.6825

          STORAGE:                                 STORAGE:
          --------                                 --------
      STORAGE CHANGE =    50906301.1101        STORAGE CHANGE =           3.6825

 PERCENT DISCREPANCY IS DIFFERENCE BETWEEN IN-OUT MINUS CHANGE IN STORAGE
 DIVIDED BY THE AVERAGE OF IN AND OUT TIMES 100

 PERCENT DISCREPANCY =           0.00     PERCENT DISCREPANCY =           0.00






1
  VOLUMETRIC BUDGET FOR AGRICULTURAL FIELDS AT  END OF TIME STEP   30, STRESS PERIOD  14
  ------------------------------------------------------------------------------

     CUMULATIVE VOLUMES      L**3       RATES FOR THIS TIME STEP      L**3/T
     ------------------                 ------------------------

           IN:                                      IN:
           ---                                      ---
               AG WELLS  =   174751168.0000                 AG WELLS  =           0.0000
      DIVERSION SEGMENTS =   224912208.0000        DIVERSION SEGMENTS =           0.0000
           GW IRRIGATION =           0.0000             GW IRRIGATION =           0.0000
           SW IRRIGATION =           0.0000             SW IRRIGATION =           0.0000
        SYSTEM LOSSES GW =           0.0000          SYSTEM LOSSES GW =           0.0000
        SYSTEM LOSSES SW =           0.0000          SYSTEM LOSSES SW =           0.0000

                TOTAL IN =   399663360.0000                  TOTAL IN =           0.0000

          OUT:                                     OUT:
          ----                                     ----
               AG WELLS  =           0.0000                 AG WELLS  =           0.0000
      DIVERSION SEGMENTS =           0.0000        DIVERSION SEGMENTS =           0.0000
           GW IRRIGATION =   174751168.0000             GW IRRIGATION =           0.0000
           SW IRRIGATION =   224916624.0000             SW IRRIGATION =           0.0000
        SYSTEM LOSSES GW =           0.0000          SYSTEM LOSSES GW =           0.0000
        SYSTEM LOSSES SW =           0.0000          SYSTEM LOSSES SW =           0.0000

               TOTAL OUT =   399667776.0000                 TOTAL OUT =           0.0000

                IN - OUT =       -4416.0000                  IN - OUT =           0.0000

     PERCENT DISCREPANCY =          -0.00         PERCENT DISCREPANCY =           0.00



1
  VOLUMETRIC BUDGET FOR ENTIRE MODEL AT END OF TIME STEP   30, STRESS PERIOD  14
  ------------------------------------------------------------------------------

     CUMULATIVE VOLUMES      L**3       RATES FOR THIS TIME STEP      L**3/T
     ------------------                 ------------------------

           IN:                                      IN:
           ---                                      ---
             STORAGE     =   259420624.0000               STORAGE     =           2.5304
       CONSTANT HEAD     =           0.0000         CONSTANT HEAD     =           0.0000
     HEAD DEP BOUNDS     =     9869755.0000       HEAD DEP BOUNDS     =           0.2881
      STREAM LEAKAGE     =   399682528.0000        STREAM LEAKAGE     =          11.1144
        UZF RECHARGE     =       73223.9531          UZF RECHARGE     =           0.0000
               GW ET     =           0.0000                 GW ET     =           0.0000
     SURFACE LEAKAGE     =           0.0000       SURFACE LEAKAGE     =           0.0000
           AG WELLS      =           0.0000             AG WELLS      =           0.0000

                TOTAL IN =   669046144.0000                  TOTAL IN =          13.9329

          OUT:                                     OUT:
          ----                                     ----
             STORAGE     =   129987400.0000               STORAGE     =           3.3554
       CONSTANT HEAD     =           0.0000         CONSTANT HEAD     =           0.0000
     HEAD DEP BOUNDS     =     9867860.0000       HEAD DEP BOUNDS     =           0.2872
      STREAM LEAKAGE     =   354422688.0000        STREAM LEAKAGE     =          10.2905
        UZF RECHARGE     =           0.0000          UZF RECHARGE     =           0.0000
               GW ET     =           0.0000                 GW ET     =           0.0000
     SURFACE LEAKAGE     =           0.0000       SURFACE LEAKAGE     =           0.0000
           AG WELLS      =   174751168.0000             AG WELLS      =           0.0000

               TOTAL OUT =   669029120.0000                 TOTAL OUT =          13.9332

                IN - OUT =       17024.0000                  IN - OUT =      -2.3270E-04

     PERCENT DISCREPANCY =           0.00         PERCENT DISCREPANCY =          -0.00






         TIME SUMMARY AT END OF TIME STEP   30 IN STRESS PERIOD   14
                    SECONDS     MINUTES      HOURS       DAYS        YEARS
                    -----------------------------------------------------------
   TIME STEP LENGTH  87667.      1461.1      24.352      1.0147     2.77799E-03
 STRESS PERIOD TIME 2.63000E+06  43833.      730.56      30.440     8.33397E-02
         TOTAL TIME 3.42763E+07 5.71272E+05  9521.2      396.72      1.0862    
1
1
                            STRESS PERIOD NO.   15, LENGTH =   2630000.    
                            -----------------------------------------------

                              NUMBER OF TIME STEPS =    30

                               MULTIPLIER FOR DELT =     1.000

                            INITIAL TIME STEP SIZE =   87666.66    

 REUSING NON-PARAMETER GHB CELLS FROM LAST STRESS PERIOD

      2 GHB CELLS

 REUSING STREAM SEGMENT DATA FROM LAST STRESS PERIOD



            AREAL INFILTRATION RATE
 READING ON UNIT   19 WITH FORMAT: (10F4.0)            

            1           2           3           4           5           6           7           8           9          10
 ........................................................................................................................
   1   1.2000E-09   0.000       0.000       0.000       0.000       0.000       0.000       0.000       0.000       0.000    
   2   2.1000E-09  2.0000E-09  8.0000E-10  8.5000E-09   0.000       0.000       0.000       0.000       0.000       0.000    
   3   5.0000E-10  1.1000E-09  8.8000E-09  5.5000E-09   0.000       0.000       0.000       0.000       0.000       0.000    
   4   8.5000E-09  1.1000E-09  1.1000E-09  1.1000E-09  2.0000E-09   0.000       0.000       0.000       0.000       0.000    
   5   8.5000E-09  1.1000E-09  1.1000E-09  1.1000E-09  1.1000E-09   0.000       0.000       0.000       0.000       0.000    
   6   8.5000E-09  5.2000E-09  2.1000E-09  1.1000E-09  1.5000E-09   0.000       0.000       0.000       0.000       0.000    
   7   8.5000E-09  5.2000E-09  2.1000E-09  1.2000E-09  2.0000E-09   0.000       0.000       0.000       0.000       0.000    
   8   5.0000E-10  5.2000E-09  2.1000E-09  1.2000E-09  5.0000E-09   0.000       0.000       0.000       0.000       0.000    
   9   5.0000E-10  5.2000E-09  2.1000E-09  1.2000E-09  5.0000E-09   0.000       0.000       0.000       0.000       0.000    
  10   5.0000E-10  5.2000E-09  2.1000E-09  1.2000E-09  5.8000E-09   0.000       0.000       0.000       0.000       0.000    
  11   1.0000E-10  1.1000E-09  1.1000E-09  1.2000E-09  5.0000E-09   0.000       0.000       0.000       0.000       0.000    
  12   1.1000E-09  1.1000E-09  1.1000E-09  1.1000E-09  2.0000E-09   0.000       0.000       0.000       0.000       0.000    
  13   1.1000E-09  2.2000E-09  2.2000E-09  2.1000E-09  1.0000E-09   0.000       0.000       0.000       0.000       0.000    
  14   2.0000E-10  5.5000E-09  5.5000E-09  5.2000E-09  1.0000E-09   0.000       0.000       0.000       0.000       0.000    
  15    0.000      8.8000E-09  8.8000E-09   0.000       0.000       0.000       0.000       0.000       0.000       0.000    

                  ET RATE =  5.000000E-10

 USING ET EXTINCTION DEPTH FROM PREVIOUS STRESS PERIOD. CURRENT PERIOD IS:      15

 USING EXTINCTION WATER CONTENT FROM PREVIOUS STRESS PERIOD. CURRENT PERIOD IS:      15

 USING AIR ENTRY PRESSURE FROM PREVIOUS STRESS PERIOD. CURRENT PERIOD IS:      15

 USING ROOT PRESSURE HEAD FROM PREVIOUS STRESS PERIOD. CURRENT PERIOD IS:      15

 USING ROOT ACTIVITY FROM PREVIOUS STRESS PERIOD. CURRENT PERIOD IS:      15

 PROCESSING AG STRESS PERIOD DATA

 READING AG STRESS PERIOD DATA

 READING IRRIGATION SEGMENT

 READING IRRIGATION WELL

 READING SUPPLEMENTAL WELL

 END PROCESSING AG STRESS PERIOD DATA OPTIONS
 
 SOLVING FOR HEAD 
                                                   Max.-Head-Change                         Max.-Flux-Residual
  Residual-Control   Outer-Iter.   Inner-Iter.     Column Row Layer    Maximum-Head-Change  Column Row Layer    Maximum-Flux-Residual          L2-NORM 
          0                 1           2             4    7     1       0.7404516710E-02       4    7    1         0.3885844090E+00      0.9460431995E+00
          0                 2           2             4    7     1      -0.7202587665E-03       4    7    1        -0.3885852219E-01      0.9460291032E-01
          0                 3           1             4    7     1       0.4904694097E-04       4    7    1         0.2720096947E-02      0.6622058436E-02

    ------------------------------------------------
       NWT REQUIRED            3 OUTER ITERATIONS 
       AND A TOTAL OF          5 INNER ITERATIONS.
    ------------------------------------------------

 NO OUTPUT CONTROL FOR STRESS PERIOD   15   TIME STEP    1
 
 SOLVING FOR HEAD 
                                                   Max.-Head-Change                         Max.-Flux-Residual
  Residual-Control   Outer-Iter.   Inner-Iter.     Column Row Layer    Maximum-Head-Change  Column Row Layer    Maximum-Flux-Residual          L2-NORM 
          0                 1           2             4    7     1       0.7331560255E-02       4    7    1         0.3847341946E+00      0.9376469741E+00
          0                 2           2             4    7     1      -0.7131620646E-03       4    7    1        -0.3847349883E-01      0.9376461101E-01
          0                 3           1             4    7     1       0.4856368255E-04       4    7    1         0.2693145328E-02      0.6563511352E-02

    ------------------------------------------------
       NWT REQUIRED            3 OUTER ITERATIONS 
       AND A TOTAL OF          5 INNER ITERATIONS.
    ------------------------------------------------

 NO OUTPUT CONTROL FOR STRESS PERIOD   15   TIME STEP    2
 
 SOLVING FOR HEAD 
                                                   Max.-Head-Change                         Max.-Flux-Residual
  Residual-Control   Outer-Iter.   Inner-Iter.     Column Row Layer    Maximum-Head-Change  Column Row Layer    Maximum-Flux-Residual          L2-NORM 
          0                 1           2             4    7     1       0.7259608151E-02       4    7    1         0.3809367736E+00      0.9298330104E+00
          0                 2           2             4    7     1      -0.7061630585E-03       4    7    1        -0.3809375482E-01      0.9298324801E-01
          0                 3           1             4    7     1       0.4808707619E-04       4    7    1         0.2666563240E-02      0.6508821494E-02

    ------------------------------------------------
       NWT REQUIRED            3 OUTER ITERATIONS 
       AND A TOTAL OF          5 INNER ITERATIONS.
    ------------------------------------------------

 NO OUTPUT CONTROL FOR STRESS PERIOD   15   TIME STEP    3
 
 SOLVING FOR HEAD 
                                                   Max.-Head-Change                         Max.-Flux-Residual
  Residual-Control   Outer-Iter.   Inner-Iter.     Column Row Layer    Maximum-Head-Change  Column Row Layer    Maximum-Flux-Residual          L2-NORM 
          0                 1           2             4    7     1       0.7188777565E-02       4    7    1         0.3771987837E+00      0.9225727555E+00
          0                 2           2             4    7     1      -0.6992731469E-03       4    7    1        -0.3771995399E-01      0.9225725341E-01
          0                 3           1             4    7     1       0.4761789924E-04       4    7    1         0.2640397202E-02      0.6458001375E-02

    ------------------------------------------------
       NWT REQUIRED            3 OUTER ITERATIONS 
       AND A TOTAL OF          5 INNER ITERATIONS.
    ------------------------------------------------

 NO OUTPUT CONTROL FOR STRESS PERIOD   15   TIME STEP    4
 
 SOLVING FOR HEAD 
                                                   Max.-Head-Change                         Max.-Flux-Residual
  Residual-Control   Outer-Iter.   Inner-Iter.     Column Row Layer    Maximum-Head-Change  Column Row Layer    Maximum-Flux-Residual          L2-NORM 
          0                 1           2             4    7     1       0.7119035282E-02       4    7    1         0.3735189429E+00      0.9154071726E+00
          0                 2           2             4    7     1      -0.6924890985E-03       4    7    1        -0.3735196814E-01      0.9154070977E-01
          0                 3           1             4    7     1       0.4715593100E-04       4    7    1         0.2614638202E-02      0.6407838263E-02

    ------------------------------------------------
       NWT REQUIRED            3 OUTER ITERATIONS 
       AND A TOTAL OF          5 INNER ITERATIONS.
    ------------------------------------------------

 NO OUTPUT CONTROL FOR STRESS PERIOD   15   TIME STEP    5
 
 SOLVING FOR HEAD 
                                                   Max.-Head-Change                         Max.-Flux-Residual
  Residual-Control   Outer-Iter.   Inner-Iter.     Column Row Layer    Maximum-Head-Change  Column Row Layer    Maximum-Flux-Residual          L2-NORM 
          0                 1           2             4    7     1       0.7050359888E-02       4    7    1         0.3698955290E+00      0.9083461695E+00
          0                 2           2             4    7     1      -0.6858088297E-03       4    7    1        -0.3698962500E-01      0.9083624574E-01
          0                 3           1             4    7     1       0.4670103006E-04       4    7    1         0.2589274193E-02      0.6360403163E-02

    ------------------------------------------------
       NWT REQUIRED            3 OUTER ITERATIONS 
       AND A TOTAL OF          5 INNER ITERATIONS.
    ------------------------------------------------

 NO OUTPUT CONTROL FOR STRESS PERIOD   15   TIME STEP    6
 
 SOLVING FOR HEAD 
                                                   Max.-Head-Change                         Max.-Flux-Residual
  Residual-Control   Outer-Iter.   Inner-Iter.     Column Row Layer    Maximum-Head-Change  Column Row Layer    Maximum-Flux-Residual          L2-NORM 
          0                 1           2             4    7     1       0.6982724294E-02       4    7    1         0.3663274319E+00      0.9013735964E+00
          0                 2           2             4    7     1      -0.6792297057E-03       4    7    1        -0.3663281361E-01      0.9013733867E-01
          0                 3           1             4    7     1       0.4625301608E-04       4    7    1         0.2564297391E-02      0.6309603427E-02

    ------------------------------------------------
       NWT REQUIRED            3 OUTER ITERATIONS 
       AND A TOTAL OF          5 INNER ITERATIONS.
    ------------------------------------------------

 NO OUTPUT CONTROL FOR STRESS PERIOD   15   TIME STEP    7
 
 SOLVING FOR HEAD 
                                                   Max.-Head-Change                         Max.-Flux-Residual
  Residual-Control   Outer-Iter.   Inner-Iter.     Column Row Layer    Maximum-Head-Change  Column Row Layer    Maximum-Flux-Residual          L2-NORM 
          0                 1           2             4    7     1       0.6916104122E-02       4    7    1         0.3628132468E+00      0.8944948098E+00
          0                 2           2             4    7     1      -0.6727493554E-03       4    7    1        -0.3628139347E-01      0.8944948724E-01
          0                 3           1             4    7     1       0.4581172835E-04       4    7    1         0.2539697985E-02      0.6261462919E-02

    ------------------------------------------------
       NWT REQUIRED            3 OUTER ITERATIONS 
       AND A TOTAL OF          5 INNER ITERATIONS.
    ------------------------------------------------

 NO OUTPUT CONTROL FOR STRESS PERIOD   15   TIME STEP    8
 
 SOLVING FOR HEAD 
                                                   Max.-Head-Change                         Max.-Flux-Residual
  Residual-Control   Outer-Iter.   Inner-Iter.     Column Row Layer    Maximum-Head-Change  Column Row Layer    Maximum-Flux-Residual          L2-NORM 
          0                 1           2             4    7     1       0.6850479677E-02       4    7    1         0.3593517099E+00      0.8877126421E+00
          0                 2           2             4    7     1      -0.6663658631E-03       4    7    1        -0.3593523820E-01      0.8877125681E-01
          0                 3           1             4    7     1       0.4537703635E-04       4    7    1         0.2515467118E-02      0.6213983372E-02

    ------------------------------------------------
       NWT REQUIRED            3 OUTER ITERATIONS 
       AND A TOTAL OF          5 INNER ITERATIONS.
    ------------------------------------------------

 NO OUTPUT CONTROL FOR STRESS PERIOD   15   TIME STEP    9
 
 SOLVING FOR HEAD 
                                                   Max.-Head-Change                         Max.-Flux-Residual
  Residual-Control   Outer-Iter.   Inner-Iter.     Column Row Layer    Maximum-Head-Change  Column Row Layer    Maximum-Flux-Residual          L2-NORM 
          0                 1           2             4    7     1       0.6785960680E-02       4    7    1         0.3559491578E+00      0.8810194423E+00
          0                 2           2             4    7     1      -0.6600899013E-03       4    7    1        -0.3559498146E-01      0.8810190907E-01
          0                 3           1             4    7     1       0.4494966702E-04       4    7    1         0.2491649151E-02      0.6167121564E-02

    ------------------------------------------------
       NWT REQUIRED            3 OUTER ITERATIONS 
       AND A TOTAL OF          5 INNER ITERATIONS.
    ------------------------------------------------

 NO OUTPUT CONTROL FOR STRESS PERIOD   15   TIME STEP   10
 
 SOLVING FOR HEAD 
                                                   Max.-Head-Change                         Max.-Flux-Residual
  Residual-Control   Outer-Iter.   Inner-Iter.     Column Row Layer    Maximum-Head-Change  Column Row Layer    Maximum-Flux-Residual          L2-NORM 
          0                 1           2             4    7     1       0.6722248518E-02       4    7    1         0.3525892063E+00      0.8744065054E+00
          0                 2           2             4    7     1      -0.6538924230E-03       4    7    1        -0.3525898480E-01      0.8744061420E-01
          0                 3           1             4    7     1       0.4452764189E-04       4    7    1         0.2468129386E-02      0.6120832581E-02

    ------------------------------------------------
       NWT REQUIRED            3 OUTER ITERATIONS 
       AND A TOTAL OF          5 INNER ITERATIONS.
    ------------------------------------------------

 NO OUTPUT CONTROL FOR STRESS PERIOD   15   TIME STEP   11
 
 SOLVING FOR HEAD 
                                                   Max.-Head-Change                         Max.-Flux-Residual
  Residual-Control   Outer-Iter.   Inner-Iter.     Column Row Layer    Maximum-Head-Change  Column Row Layer    Maximum-Flux-Residual          L2-NORM 
          0                 1           2             4    7     1       0.6659466726E-02       4    7    1         0.3492784456E+00      0.8678811703E+00
          0                 2           2             4    7     1      -0.6477854451E-03       4    7    1        -0.3492790728E-01      0.8678805655E-01
          0                 3           1             4    7     1       0.4411177962E-04       4    7    1         0.2444953960E-02      0.6075199531E-02

    ------------------------------------------------
       NWT REQUIRED            3 OUTER ITERATIONS 
       AND A TOTAL OF          5 INNER ITERATIONS.
    ------------------------------------------------

 NO OUTPUT CONTROL FOR STRESS PERIOD   15   TIME STEP   12
 
 SOLVING FOR HEAD 
                                                   Max.-Head-Change                         Max.-Flux-Residual
  Residual-Control   Outer-Iter.   Inner-Iter.     Column Row Layer    Maximum-Head-Change  Column Row Layer    Maximum-Flux-Residual          L2-NORM 
          0                 1           2             4    7     1       0.6597590663E-02       4    7    1         0.3460159234E+00      0.8614401416E+00
          0                 2           2             4    7     1      -0.6417665708E-03       4    7    1        -0.3460165365E-01      0.8614392981E-01
          0                 3           1             4    7     1       0.4370191654E-04       4    7    1         0.2422116233E-02      0.6030061102E-02

    ------------------------------------------------
       NWT REQUIRED            3 OUTER ITERATIONS 
       AND A TOTAL OF          5 INNER ITERATIONS.
    ------------------------------------------------

 NO OUTPUT CONTROL FOR STRESS PERIOD   15   TIME STEP   13
 
 SOLVING FOR HEAD 
                                                   Max.-Head-Change                         Max.-Flux-Residual
  Residual-Control   Outer-Iter.   Inner-Iter.     Column Row Layer    Maximum-Head-Change  Column Row Layer    Maximum-Flux-Residual          L2-NORM 
          0                 1           2             4    7     1       0.6536603140E-02       4    7    1         0.3428003619E+00      0.8550861113E+00
          0                 2           2             4    7     1      -0.6358341273E-03       4    7    1        -0.3428009610E-01      0.8550850736E-01
          0                 3           1             4    7     1       0.4329793928E-04       4    7    1         0.2399607198E-02      0.5985584972E-02

    ------------------------------------------------
       NWT REQUIRED            3 OUTER ITERATIONS 
       AND A TOTAL OF          5 INNER ITERATIONS.
    ------------------------------------------------

 NO OUTPUT CONTROL FOR STRESS PERIOD   15   TIME STEP   14
 
 SOLVING FOR HEAD 
                                                   Max.-Head-Change                         Max.-Flux-Residual
  Residual-Control   Outer-Iter.   Inner-Iter.     Column Row Layer    Maximum-Head-Change  Column Row Layer    Maximum-Flux-Residual          L2-NORM 
          0                 1           2             4    7     1       0.6476619839E-02       4    7    1         0.3396382282E+00      0.8488087957E+00
          0                 2           2             4    7     1      -0.6299993681E-03       4    7    1        -0.3396388141E-01      0.8488075061E-01
          0                 3           1             4    7     1       0.4290061409E-04       4    7    1         0.2377472171E-02      0.5941636611E-02

    ------------------------------------------------
       NWT REQUIRED            3 OUTER ITERATIONS 
       AND A TOTAL OF          5 INNER ITERATIONS.
    ------------------------------------------------

 NO OUTPUT CONTROL FOR STRESS PERIOD   15   TIME STEP   15
 
 SOLVING FOR HEAD 
                                                   Max.-Head-Change                         Max.-Flux-Residual
  Residual-Control   Outer-Iter.   Inner-Iter.     Column Row Layer    Maximum-Head-Change  Column Row Layer    Maximum-Flux-Residual          L2-NORM 
          0                 1           2             4    7     1       0.6417343909E-02       4    7    1         0.3365134456E+00      0.8426078634E+00
          0                 2           2             4    7     1      -0.6242334174E-03       4    7    1        -0.3365140185E-01      0.8426062847E-01
          0                 3           1             4    7     1       0.4250797467E-04       4    7    1         0.2355598608E-02      0.5898231083E-02

    ------------------------------------------------
       NWT REQUIRED            3 OUTER ITERATIONS 
       AND A TOTAL OF          5 INNER ITERATIONS.
    ------------------------------------------------

 NO OUTPUT CONTROL FOR STRESS PERIOD   15   TIME STEP   16
 
 SOLVING FOR HEAD 
                                                   Max.-Head-Change                         Max.-Flux-Residual
  Residual-Control   Outer-Iter.   Inner-Iter.     Column Row Layer    Maximum-Head-Change  Column Row Layer    Maximum-Flux-Residual          L2-NORM 
          0                 1           2             4    7     1       0.6359034601E-02       4    7    1         0.3334400557E+00      0.8364904418E+00
          0                 2           2             4    7     1      -0.6185614928E-03       4    7    1        -0.3334406159E-01      0.8364885640E-01
          0                 3           1             4    7     1       0.4212173750E-04       4    7    1         0.2334084786E-02      0.5855407896E-02

    ------------------------------------------------
       NWT REQUIRED            3 OUTER ITERATIONS 
       AND A TOTAL OF          5 INNER ITERATIONS.
    ------------------------------------------------

 NO OUTPUT CONTROL FOR STRESS PERIOD   15   TIME STEP   17
 
 SOLVING FOR HEAD 
                                                   Max.-Head-Change                         Max.-Flux-Residual
  Residual-Control   Outer-Iter.   Inner-Iter.     Column Row Layer    Maximum-Head-Change  Column Row Layer    Maximum-Flux-Residual          L2-NORM 
          0                 1           2             4    7     1       0.6301533511E-02       4    7    1         0.3304094255E+00      0.8304506952E+00
          0                 2           2             4    7     1      -0.6129681865E-03       4    7    1        -0.3304099734E-01      0.8304488291E-01
          0                 3           1             4    7     1       0.4174085435E-04       4    7    1         0.2312870292E-02      0.5813132412E-02

    ------------------------------------------------
       NWT REQUIRED            3 OUTER ITERATIONS 
       AND A TOTAL OF          5 INNER ITERATIONS.
    ------------------------------------------------

 NO OUTPUT CONTROL FOR STRESS PERIOD   15   TIME STEP   18
 
 SOLVING FOR HEAD 
                                                   Max.-Head-Change                         Max.-Flux-Residual
  Residual-Control   Outer-Iter.   Inner-Iter.     Column Row Layer    Maximum-Head-Change  Column Row Layer    Maximum-Flux-Residual          L2-NORM 
          0                 1           2             4    7     1       0.6244688304E-02       4    7    1         0.3274133417E+00      0.8244797018E+00
          0                 2           2             4    7     1      -0.6074386803E-03       4    7    1        -0.3274138777E-01      0.8244773378E-01
          0                 3           1             4    7     1       0.4136431546E-04       4    7    1         0.2291897618E-02      0.5771313221E-02

    ------------------------------------------------
       NWT REQUIRED            3 OUTER ITERATIONS 
       AND A TOTAL OF          5 INNER ITERATIONS.
    ------------------------------------------------

 NO OUTPUT CONTROL FOR STRESS PERIOD   15   TIME STEP   19
 
 SOLVING FOR HEAD 
                                                   Max.-Head-Change                         Max.-Flux-Residual
  Residual-Control   Outer-Iter.   Inner-Iter.     Column Row Layer    Maximum-Head-Change  Column Row Layer    Maximum-Flux-Residual          L2-NORM 
          0                 1           2             4    7     1       0.6188758359E-02       4    7    1         0.3244659817E+00      0.8185838287E+00
          0                 2           2             4    7     1      -0.6019982044E-03       4    7    1        -0.3244665061E-01      0.8185814948E-01
          0                 3           1             4    7     1       0.4099383931E-04       4    7    1         0.2271266012E-02      0.5730054446E-02

    ------------------------------------------------
       NWT REQUIRED            3 OUTER ITERATIONS 
       AND A TOTAL OF          5 INNER ITERATIONS.
    ------------------------------------------------

 NO OUTPUT CONTROL FOR STRESS PERIOD   15   TIME STEP   20
 
 SOLVING FOR HEAD 
                                                   Max.-Head-Change                         Max.-Flux-Residual
  Residual-Control   Outer-Iter.   Inner-Iter.     Column Row Layer    Maximum-Head-Change  Column Row Layer    Maximum-Flux-Residual          L2-NORM 
          0                 1           2             4    7     1       0.6133722579E-02       4    7    1         0.3215660769E+00      0.8127692500E+00
          0                 2           2             4    7     1      -0.5966447071E-03       4    7    1        -0.3215665900E-01      0.8127666046E-01
          0                 3           1             4    7     1       0.4062928638E-04       4    7    1         0.2250966605E-02      0.5689336022E-02

    ------------------------------------------------
       NWT REQUIRED            3 OUTER ITERATIONS 
       AND A TOTAL OF          5 INNER ITERATIONS.
    ------------------------------------------------

 NO OUTPUT CONTROL FOR STRESS PERIOD   15   TIME STEP   21
 
 SOLVING FOR HEAD 
                                                   Max.-Head-Change                         Max.-Flux-Residual
  Residual-Control   Outer-Iter.   Inner-Iter.     Column Row Layer    Maximum-Head-Change  Column Row Layer    Maximum-Flux-Residual          L2-NORM 
          0                 1           2             4    7     1       0.6079287136E-02       4    7    1         0.3186978158E+00      0.8070142058E+00
          0                 2           2             4    7     1      -0.5913496067E-03       4    7    1        -0.3186983178E-01      0.8070113672E-01
          0                 3           1             4    7     1       0.4026870980E-04       4    7    1         0.2230888706E-02      0.5649052433E-02

    ------------------------------------------------
       NWT REQUIRED            3 OUTER ITERATIONS 
       AND A TOTAL OF          5 INNER ITERATIONS.
    ------------------------------------------------

 NO OUTPUT CONTROL FOR STRESS PERIOD   15   TIME STEP   22
 
 SOLVING FOR HEAD 
                                                   Max.-Head-Change                         Max.-Flux-Residual
  Residual-Control   Outer-Iter.   Inner-Iter.     Column Row Layer    Maximum-Head-Change  Column Row Layer    Maximum-Flux-Residual          L2-NORM 
          0                 1           2             4    7     1       0.6025717803E-02       4    7    1         0.3158753991E+00      0.8013406691E+00
          0                 2           2             4    7     1      -0.5861387557E-03       4    7    1        -0.3158758903E-01      0.8013375600E-01
          0                 3           1             4    7     1       0.3991387053E-04       4    7    1         0.2211131731E-02      0.5609334207E-02

    ------------------------------------------------
       NWT REQUIRED            3 OUTER ITERATIONS 
       AND A TOTAL OF          5 INNER ITERATIONS.
    ------------------------------------------------

 NO OUTPUT CONTROL FOR STRESS PERIOD   15   TIME STEP   23
 
 SOLVING FOR HEAD 
                                                   Max.-Head-Change                         Max.-Flux-Residual
  Residual-Control   Outer-Iter.   Inner-Iter.     Column Row Layer    Maximum-Head-Change  Column Row Layer    Maximum-Flux-Residual          L2-NORM 
          0                 1           2             4    7     1       0.5972717757E-02       4    7    1         0.3130831709E+00      0.7957254991E+00
          0                 2           2             4    7     1      -0.5809832809E-03       4    7    1        -0.3130836518E-01      0.7957223278E-01
          0                 3           1             4    7     1       0.3956280194E-04       4    7    1         0.2191586059E-02      0.5570027198E-02

    ------------------------------------------------
       NWT REQUIRED            3 OUTER ITERATIONS 
       AND A TOTAL OF          5 INNER ITERATIONS.
    ------------------------------------------------

 NO OUTPUT CONTROL FOR STRESS PERIOD   15   TIME STEP   24
 
 SOLVING FOR HEAD 
                                                   Max.-Head-Change                         Max.-Flux-Residual
  Residual-Control   Outer-Iter.   Inner-Iter.     Column Row Layer    Maximum-Head-Change  Column Row Layer    Maximum-Flux-Residual          L2-NORM 
          0                 1           2             4    7     1       0.5920554854E-02       4    7    1         0.3103351776E+00      0.7901832629E+00
          0                 2           2             4    7     1      -0.5759092374E-03       4    7    1        -0.3103356482E-01      0.7901800763E-01
          0                 3           1             4    7     1       0.3921727826E-04       4    7    1         0.2172350024E-02      0.5531237981E-02

    ------------------------------------------------
       NWT REQUIRED            3 OUTER ITERATIONS 
       AND A TOTAL OF          5 INNER ITERATIONS.
    ------------------------------------------------

 NO OUTPUT CONTROL FOR STRESS PERIOD   15   TIME STEP   25
 
 SOLVING FOR HEAD 
                                                   Max.-Head-Change                         Max.-Flux-Residual
  Residual-Control   Outer-Iter.   Inner-Iter.     Column Row Layer    Maximum-Head-Change  Column Row Layer    Maximum-Flux-Residual          L2-NORM 
          0                 1           2             4    7     1       0.5869203875E-02       4    7    1         0.3076305894E+00      0.7847087850E+00
          0                 2           2             4    7     1      -0.5709141732E-03       4    7    1        -0.3076310503E-01      0.7847053229E-01
          0                 3           1             4    7     1       0.3887713309E-04       4    7    1         0.2153417836E-02      0.5492908632E-02

    ------------------------------------------------
       NWT REQUIRED            3 OUTER ITERATIONS 
       AND A TOTAL OF          5 INNER ITERATIONS.
    ------------------------------------------------

 NO OUTPUT CONTROL FOR STRESS PERIOD   15   TIME STEP   26
 
 SOLVING FOR HEAD 
                                                   Max.-Head-Change                         Max.-Flux-Residual
  Residual-Control   Outer-Iter.   Inner-Iter.     Column Row Layer    Maximum-Head-Change  Column Row Layer    Maximum-Flux-Residual          L2-NORM 
          0                 1           2             4    7     1       0.5818378115E-02       4    7    1         0.3049533795E+00      0.7792964769E+00
          0                 2           2             4    7     1      -0.5659795853E-03       4    7    1        -0.3049538305E-01      0.7793904116E-01
          0                 3           1             4    7     1       0.3854110651E-04       4    7    1         0.2134677322E-02      0.5455683513E-02

    ------------------------------------------------
       NWT REQUIRED            3 OUTER ITERATIONS 
       AND A TOTAL OF          5 INNER ITERATIONS.
    ------------------------------------------------

 NO OUTPUT CONTROL FOR STRESS PERIOD   15   TIME STEP   27
 
 SOLVING FOR HEAD 
                                                   Max.-Head-Change                         Max.-Flux-Residual
  Residual-Control   Outer-Iter.   Inner-Iter.     Column Row Layer    Maximum-Head-Change  Column Row Layer    Maximum-Flux-Residual          L2-NORM 
          0                 1           2             4    7     1       0.5768310438E-02       4    7    1         0.3023176214E+00      0.7739474568E+00
          0                 2           2             4    7     1      -0.5610999650E-03       4    7    1        -0.3023180631E-01      0.7739434536E-01
          0                 3           1             4    7     1       0.3820882220E-04       4    7    1         0.2116226935E-02      0.5417560531E-02

    ------------------------------------------------
       NWT REQUIRED            3 OUTER ITERATIONS 
       AND A TOTAL OF          5 INNER ITERATIONS.
    ------------------------------------------------

 NO OUTPUT CONTROL FOR STRESS PERIOD   15   TIME STEP   28
 
 SOLVING FOR HEAD 
                                                   Max.-Head-Change                         Max.-Flux-Residual
  Residual-Control   Outer-Iter.   Inner-Iter.     Column Row Layer    Maximum-Head-Change  Column Row Layer    Maximum-Flux-Residual          L2-NORM 
          0                 1           2             4    7     1       0.5718950142E-02       4    7    1         0.2997148069E+00      0.8077617259E+00
          0                 2           2             4    7     1      -0.5562985405E-03       4    7    1        -0.2997152395E-01      0.8540311696E-01
          0                 3           1             4    7     1       0.3788186210E-04       4    7    1         0.2098007164E-02      0.5968854845E-02

    ------------------------------------------------
       NWT REQUIRED            3 OUTER ITERATIONS 
       AND A TOTAL OF          5 INNER ITERATIONS.
    ------------------------------------------------

 NO OUTPUT CONTROL FOR STRESS PERIOD   15   TIME STEP   29
 
 SOLVING FOR HEAD 
                                                   Max.-Head-Change                         Max.-Flux-Residual
  Residual-Control   Outer-Iter.   Inner-Iter.     Column Row Layer    Maximum-Head-Change  Column Row Layer    Maximum-Flux-Residual          L2-NORM 
          0                 1           2             4   13     1       0.1103817924E-01       4   13    1         0.6345322325E+00      0.1397920008E+01
          0                 2           2             4   13     1      -0.1062607132E-02       4   13    1        -0.6280656363E-01      0.1373040194E+00
          0                 3           1             4   13     1       0.7131934334E-04       4   13    1         0.4334161705E-02      0.9381483397E-02

    ------------------------------------------------
       NWT REQUIRED            3 OUTER ITERATIONS 
       AND A TOTAL OF          5 INNER ITERATIONS.
    ------------------------------------------------

 NO OUTPUT CONTROL FOR STRESS PERIOD   15   TIME STEP   30



 STREAM LISTING     PERIOD     15   STEP       30

 LAYER ROW COL. STREAM  RCH.  FLOW INTO     FLOW TO   FLOW OUT OF   OVRLND.     DIRECT     STREAM       STREAM     STREAM     STREAM   STREAMBED  STREAMBED
                SEG.NO.  NO.  STRM. RCH.    AQUIFER    STRM. RCH.    RUNOFF     PRECIP       ET          HEAD       DEPTH      WIDTH   CONDCTNC.   GRADIENT

   1    1    1     1     1    3.6751E+01  2.9262E-01   3.6458E+01  0.000E+00  0.000E+00  0.000E+00  1.09435E+03  1.306E+00  1.510E+01  6.795E-02  1.435E+00
   1    2    2     1     2    3.6458E+01  4.5310E-01   3.6005E+01  0.000E+00  0.000E+00  0.000E+00  1.08936E+03  1.303E+00  1.504E+01  1.053E-01  1.434E+00
   1    3    3     1     3    3.6005E+01  3.8635E-01   3.5618E+01  0.000E+00  0.000E+00  0.000E+00  1.08372E+03  1.300E+00  1.497E+01  8.985E-02  1.433E+00
   1    3    4     1     4    3.5618E+01  3.5572E-01   3.5263E+01  0.000E+00  0.000E+00  0.000E+00  1.07870E+03  1.297E+00  1.492E+01  8.278E-02  1.432E+00
   1    4    5     2     1    3.3263E+01  3.4544E-01   3.2917E+01  0.000E+00  0.000E+00  0.000E+00  1.07336E+03  1.429E+00  1.200E+01  7.800E-02  1.476E+00
   1    5    6     2     2    3.2917E+01  2.6525E-01   3.2652E+01  0.000E+00  0.000E+00  0.000E+00  1.06793E+03  1.421E+00  1.200E+01  6.000E-02  1.474E+00
   1    6    6     2     3    3.2652E+01  2.6484E-01   3.2387E+01  0.000E+00  0.000E+00  0.000E+00  1.06321E+03  1.414E+00  1.200E+01  6.000E-02  1.471E+00
   1    7    6     2     4    3.2387E+01  2.6442E-01   3.2123E+01  0.000E+00  0.000E+00  0.000E+00  1.05848E+03  1.407E+00  1.200E+01  6.000E-02  1.469E+00
   1    8    6     2     5    3.2123E+01  2.6401E-01   3.1859E+01  0.000E+00  0.000E+00  0.000E+00  1.05376E+03  1.400E+00  1.200E+01  6.000E-02  1.467E+00
   1    3    5     3     1    2.0000E+00  2.8252E-01   1.7175E+00  0.000E+00  0.000E+00  0.000E+00  1.07555E+03  1.909E+00  9.636E+00  7.227E-02  1.955E+00
   1    3    6     3     2    1.7175E+00  2.4905E-01   1.4684E+00  0.000E+00  0.000E+00  0.000E+00  1.07264E+03  1.727E+00  8.909E+00  6.682E-02  1.864E+00
   1    3    7     3     3    1.4684E+00  1.9718E-01   1.2712E+00  0.000E+00  0.000E+00  0.000E+00  1.06987E+03  1.555E+00  8.218E+00  5.547E-02  1.777E+00
   1    4    8     3     4    1.2712E+00  2.2567E-01   1.0456E+00  0.000E+00  0.000E+00  0.000E+00  1.06682E+03  1.364E+00  7.455E+00  6.709E-02  1.682E+00
   1    5    8     3     5    1.0456E+00  1.5790E-01   8.8768E-01  0.000E+00  0.000E+00  0.000E+00  1.06362E+03  1.164E+00  6.655E+00  4.991E-02  1.582E+00
   1    6    8     3     6    8.8768E-01  5.5980E-02   8.3170E-01  0.000E+00  0.000E+00  0.000E+00  1.06158E+03  1.036E+00  6.145E+00  1.844E-02  1.518E+00
   1    5   10     4     1    1.0000E+01  9.0919E-02   9.9091E+00  0.000E+00  0.000E+00  0.000E+00  1.07836E+03  6.368E-01  1.000E+01  2.500E-02  1.212E+00
   1    5    9     4     2    9.9091E+00  1.8158E-01   9.7275E+00  0.000E+00  0.000E+00  0.000E+00  1.07154E+03  6.315E-01  1.000E+01  5.000E-02  1.211E+00
   1    6    8     4     3    9.7275E+00  1.2689E-01   9.6006E+00  0.000E+00  0.000E+00  0.000E+00  1.06381E+03  6.256E-01  1.000E+01  3.500E-02  1.209E+00
   1    6    8     5     1    1.0432E+01  2.2686E-01   1.0205E+01  0.000E+00  0.000E+00  0.000E+00  1.05868E+03  6.790E-01  1.542E+01  6.166E-02  1.226E+00
   1    7    7     5     2    1.0205E+01  2.7894E-01   9.9265E+00  0.000E+00  0.000E+00  0.000E+00  1.05417E+03  6.732E-01  1.519E+01  7.594E-02  1.224E+00
   1    8    7     5     3    9.9265E+00  1.9221E-01   9.7343E+00  0.000E+00  0.000E+00  0.000E+00  1.04992E+03  6.676E-01  1.497E+01  5.241E-02  1.223E+00
   1    8    6     5     4    9.7343E+00  1.3577E-01   9.5985E+00  0.000E+00  0.000E+00  0.000E+00  1.04691E+03  6.637E-01  1.482E+01  3.706E-02  1.221E+00
   1    9    6     6     1    4.1457E+01  2.7904E-01   4.1178E+01  0.000E+00  0.000E+00  0.000E+00  1.04438E+03  1.651E+00  1.200E+01  6.000E-02  1.550E+00
   1   10    7     6     2    4.1178E+01  2.7864E-01   4.0900E+01  0.000E+00  0.000E+00  0.000E+00  1.03983E+03  1.644E+00  1.200E+01  6.000E-02  1.548E+00
   1   11    7     6     3    4.0900E+01  2.7823E-01   4.0621E+01  0.000E+00  0.000E+00  0.000E+00  1.03527E+03  1.637E+00  1.200E+01  6.000E-02  1.546E+00
   1   12    7     6     4    4.0621E+01  2.7783E-01   4.0344E+01  0.000E+00  0.000E+00  0.000E+00  1.03072E+03  1.631E+00  1.200E+01  6.000E-02  1.544E+00
   1   13    7     6     5    4.0344E+01  1.7433E-02   4.0326E+01  0.000E+00  0.000E+00  0.000E+00  1.02754E+03  1.627E+00  1.200E+01  2.400E-02  2.421E-01
   1   14    9     7     1    1.5000E+02  1.3701E+00   1.4863E+02  0.000E+00  0.000E+00  0.000E+00  1.03987E+03  2.288E+00  5.529E+01  5.593E-01  8.166E-01
   1   13    8     7     2    1.4863E+02  1.9242E+00   1.4671E+02  0.000E+00  0.000E+00  0.000E+00  1.03478E+03  2.279E+00  5.525E+01  6.148E-01  1.043E+00
   1   13    7     7     3    1.4671E+02  1.6077E+00   1.4510E+02  0.000E+00  0.000E+00  0.000E+00  1.02969E+03  2.269E+00  5.521E+01  5.584E-01  9.597E-01
   1   13    6     8     1    1.8542E+02  1.1286E+00   1.8430E+02  0.000E+00  0.000E+00  0.000E+00  1.02492E+03  3.046E+00  4.417E+01  4.501E-01  8.358E-01
   1   13    5     8     2    1.8430E+02  3.4065E-01   1.8395E+02  0.000E+00  0.000E+00  0.000E+00  1.01867E+03  3.042E+00  4.411E+01  4.495E-01  2.526E-01
   1   13    4     8     3    1.8395E+02 -1.5831E+00   1.8554E+02  0.000E+00  0.000E+00  0.000E+00  1.01242E+03  3.046E+00  4.416E+01  4.500E+00 -1.173E-01
   1   13    3     8     4    1.8554E+02 -3.0039E+00   1.8854E+02  0.000E+00  0.000E+00  0.000E+00  1.00618E+03  3.060E+00  4.437E+01  4.521E+00 -2.215E-01
   1   13    2     8     5    1.8854E+02 -1.9913E+00   1.9053E+02  0.000E+00  0.000E+00  0.000E+00  9.99950E+02  3.075E+00  4.459E+01  4.544E+00 -1.461E-01
   1   13    1     8     6    1.9053E+02 -1.6541E+00   1.9219E+02  0.000E+00  0.000E+00  0.000E+00  9.94961E+02  3.086E+00  4.475E+01  2.736E+00 -2.015E-01
   1    8    6     9     1    0.0000E+00  0.0000E+00   0.0000E+00  0.000E+00  0.000E+00  0.000E+00  1.07875E+03  0.000E+00  4.000E+00  0.000E+00  1.000E+00
   1    8    5     9     2    0.0000E+00  0.0000E+00   0.0000E+00  0.000E+00  0.000E+00  0.000E+00  1.07825E+03  0.000E+00  4.000E+00  0.000E+00  1.000E+00





UNSATURATED ZONE PACKAGE VOLUMETRIC BUDGET FOR  TIME STEP    30 STRESS PERIOD   15
  ------------------------------------------------------------------------------



     CUMULATIVE VOLUMES      L**3       RATES FOR THIS TIME STEP      L**3/T
     ------------------                 ------------------------

           IN:                                      IN:
           ---                                      ---
        INFILTRATION =   562025289.9099          INFILTRATION =           4.4075

          OUT:                                     OUT:
          ----                                     ----
              UZF ET =   501360783.1473                UZF ET =           0.7250
        UZF RECHARGE =       73224.0000          UZF RECHARGE =       0.0000E+00

            IN - OUT =    60591282.7626              IN - OUT =           3.6825

          STORAGE:                                 STORAGE:
          --------                                 --------
      STORAGE CHANGE =    60591275.7298        STORAGE CHANGE =           3.6825

 PERCENT DISCREPANCY IS DIFFERENCE BETWEEN IN-OUT MINUS CHANGE IN STORAGE
 DIVIDED BY THE AVERAGE OF IN AND OUT TIMES 100

 PERCENT DISCREPANCY =           0.00     PERCENT DISCREPANCY =           0.00






1
  VOLUMETRIC BUDGET FOR AGRICULTURAL FIELDS AT  END OF TIME STEP   30, STRESS PERIOD  15
  ------------------------------------------------------------------------------

     CUMULATIVE VOLUMES      L**3       RATES FOR THIS TIME STEP      L**3/T
     ------------------                 ------------------------

           IN:                                      IN:
           ---                                      ---
               AG WELLS  =   174751168.0000                 AG WELLS  =           0.0000
      DIVERSION SEGMENTS =   224912208.0000        DIVERSION SEGMENTS =           0.0000
           GW IRRIGATION =           0.0000             GW IRRIGATION =           0.0000
           SW IRRIGATION =           0.0000             SW IRRIGATION =           0.0000
        SYSTEM LOSSES GW =           0.0000          SYSTEM LOSSES GW =           0.0000
        SYSTEM LOSSES SW =           0.0000          SYSTEM LOSSES SW =           0.0000

                TOTAL IN =   399663360.0000                  TOTAL IN =           0.0000

          OUT:                                     OUT:
          ----                                     ----
               AG WELLS  =           0.0000                 AG WELLS  =           0.0000
      DIVERSION SEGMENTS =           0.0000        DIVERSION SEGMENTS =           0.0000
           GW IRRIGATION =   174751168.0000             GW IRRIGATION =           0.0000
           SW IRRIGATION =   224916624.0000             SW IRRIGATION =           0.0000
        SYSTEM LOSSES GW =           0.0000          SYSTEM LOSSES GW =           0.0000
        SYSTEM LOSSES SW =           0.0000          SYSTEM LOSSES SW =           0.0000

               TOTAL OUT =   399667776.0000                 TOTAL OUT =           0.0000

                IN - OUT =       -4416.0000                  IN - OUT =           0.0000

     PERCENT DISCREPANCY =          -0.00         PERCENT DISCREPANCY =           0.00



1
  VOLUMETRIC BUDGET FOR ENTIRE MODEL AT END OF TIME STEP   30, STRESS PERIOD  15
  ------------------------------------------------------------------------------

     CUMULATIVE VOLUMES      L**3       RATES FOR THIS TIME STEP      L**3/T
     ------------------                 ------------------------

           IN:                                      IN:
           ---                                      ---
             STORAGE     =   265162752.0000               STORAGE     =           1.5923
       CONSTANT HEAD     =           0.0000         CONSTANT HEAD     =           0.0000
     HEAD DEP BOUNDS     =    10627418.0000       HEAD DEP BOUNDS     =           0.2881
      STREAM LEAKAGE     =   429277824.0000        STREAM LEAKAGE     =          12.7957
        UZF RECHARGE     =       73223.9531          UZF RECHARGE     =           0.0000
               GW ET     =           0.0000                 GW ET     =           0.0000
     SURFACE LEAKAGE     =           0.0000       SURFACE LEAKAGE     =           0.0000
           AG WELLS      =           0.0000             AG WELLS      =           0.0000

                TOTAL IN =   705141248.0000                  TOTAL IN =          14.6760

          OUT:                                     OUT:
          ----                                     ----
             STORAGE     =   138620272.0000               STORAGE     =           6.1575
       CONSTANT HEAD     =           0.0000         CONSTANT HEAD     =           0.0000
     HEAD DEP BOUNDS     =    10623320.0000       HEAD DEP BOUNDS     =           0.2875
      STREAM LEAKAGE     =   381130272.0000        STREAM LEAKAGE     =           8.2323
        UZF RECHARGE     =           0.0000          UZF RECHARGE     =           0.0000
               GW ET     =           0.0000                 GW ET     =           0.0000
     SURFACE LEAKAGE     =           0.0000       SURFACE LEAKAGE     =           0.0000
           AG WELLS      =   174751168.0000             AG WELLS      =           0.0000

               TOTAL OUT =   705124992.0000                 TOTAL OUT =          14.6773

                IN - OUT =       16256.0000                  IN - OUT =      -1.2970E-03

     PERCENT DISCREPANCY =           0.00         PERCENT DISCREPANCY =          -0.01






         TIME SUMMARY AT END OF TIME STEP   30 IN STRESS PERIOD   15
                    SECONDS     MINUTES      HOURS       DAYS        YEARS
                    -----------------------------------------------------------
   TIME STEP LENGTH  87667.      1461.1      24.352      1.0147     2.77799E-03
 STRESS PERIOD TIME 2.63000E+06  43833.      730.56      30.440     8.33397E-02
         TOTAL TIME 3.69063E+07 6.15106E+05  10252.      427.16      1.1695    
1
1
                            STRESS PERIOD NO.   16, LENGTH =   2630000.    
                            -----------------------------------------------

                              NUMBER OF TIME STEPS =    30

                               MULTIPLIER FOR DELT =     1.000

                            INITIAL TIME STEP SIZE =   87666.66    

 REUSING NON-PARAMETER GHB CELLS FROM LAST STRESS PERIOD

      2 GHB CELLS

 REUSING STREAM SEGMENT DATA FROM LAST STRESS PERIOD



            AREAL INFILTRATION RATE
 READING ON UNIT   19 WITH FORMAT: (10F4.0)            

            1           2           3           4           5           6           7           8           9          10
 ........................................................................................................................
   1   1.2000E-09   0.000       0.000       0.000       0.000       0.000       0.000       0.000       0.000       0.000    
   2   2.1000E-09  2.0000E-09  8.0000E-10  8.5000E-09   0.000       0.000       0.000       0.000       0.000       0.000    
   3   5.0000E-10  1.1000E-09  8.8000E-09  5.5000E-09   0.000       0.000       0.000       0.000       0.000       0.000    
   4   8.5000E-09  1.1000E-09  1.1000E-09  1.1000E-09  2.0000E-09   0.000       0.000       0.000       0.000       0.000    
   5   8.5000E-09  1.1000E-09  1.1000E-09  1.1000E-09  1.1000E-09   0.000       0.000       0.000       0.000       0.000    
   6   8.5000E-09  5.2000E-09  2.1000E-09  1.1000E-09  1.5000E-09   0.000       0.000       0.000       0.000       0.000    
   7   8.5000E-09  5.2000E-09  2.1000E-09  1.2000E-09  2.0000E-09   0.000       0.000       0.000       0.000       0.000    
   8   5.0000E-10  5.2000E-09  2.1000E-09  1.2000E-09  5.0000E-09   0.000       0.000       0.000       0.000       0.000    
   9   5.0000E-10  5.2000E-09  2.1000E-09  1.2000E-09  5.0000E-09   0.000       0.000       0.000       0.000       0.000    
  10   5.0000E-10  5.2000E-09  2.1000E-09  1.2000E-09  5.8000E-09   0.000       0.000       0.000       0.000       0.000    
  11   1.0000E-10  1.1000E-09  1.1000E-09  1.2000E-09  5.0000E-09   0.000       0.000       0.000       0.000       0.000    
  12   1.1000E-09  1.1000E-09  1.1000E-09  1.1000E-09  2.0000E-09   0.000       0.000       0.000       0.000       0.000    
  13   1.1000E-09  2.2000E-09  2.2000E-09  2.1000E-09  1.0000E-09   0.000       0.000       0.000       0.000       0.000    
  14   2.0000E-10  5.5000E-09  5.5000E-09  5.2000E-09  1.0000E-09   0.000       0.000       0.000       0.000       0.000    
  15    0.000      8.8000E-09  8.8000E-09   0.000       0.000       0.000       0.000       0.000       0.000       0.000    

                  ET RATE =  5.000000E-10

 USING ET EXTINCTION DEPTH FROM PREVIOUS STRESS PERIOD. CURRENT PERIOD IS:      16

 USING EXTINCTION WATER CONTENT FROM PREVIOUS STRESS PERIOD. CURRENT PERIOD IS:      16

 USING AIR ENTRY PRESSURE FROM PREVIOUS STRESS PERIOD. CURRENT PERIOD IS:      16

 USING ROOT PRESSURE HEAD FROM PREVIOUS STRESS PERIOD. CURRENT PERIOD IS:      16

 USING ROOT ACTIVITY FROM PREVIOUS STRESS PERIOD. CURRENT PERIOD IS:      16

 PROCESSING AG STRESS PERIOD DATA

 READING AG STRESS PERIOD DATA

 READING IRRIGATION SEGMENT

 READING IRRIGATION WELL

 READING SUPPLEMENTAL WELL

 END PROCESSING AG STRESS PERIOD DATA OPTIONS
 
 SOLVING FOR HEAD 
                                                   Max.-Head-Change                         Max.-Flux-Residual
  Residual-Control   Outer-Iter.   Inner-Iter.     Column Row Layer    Maximum-Head-Change  Column Row Layer    Maximum-Flux-Residual          L2-NORM 
          0                 1           2             4   13     1       0.9985716701E-02       4   13    1         0.5737418989E+00      0.1328013718E+01
          0                 2           2             4   13     1      -0.9612645679E-03       4   13    1        -0.5678770761E-01      0.1305857175E+00
          0                 3           1             4   13     1       0.6451339432E-04       4   13    1         0.3918540429E-02      0.8936028446E-02

    ------------------------------------------------
       NWT REQUIRED            3 OUTER ITERATIONS 
       AND A TOTAL OF          5 INNER ITERATIONS.
    ------------------------------------------------

 NO OUTPUT CONTROL FOR STRESS PERIOD   16   TIME STEP    1
 
 SOLVING FOR HEAD 
                                                   Max.-Head-Change                         Max.-Flux-Residual
  Residual-Control   Outer-Iter.   Inner-Iter.     Column Row Layer    Maximum-Head-Change  Column Row Layer    Maximum-Flux-Residual          L2-NORM 
          0                 1           2             4   13     1       0.9038314668E-02       4   13    1         0.5190370815E+00      0.1265775132E+01
          0                 2           2             4   13     1      -0.8700123117E-03       4   13    1        -0.5136983983E-01      0.1246071691E+00
          0                 3           1             4   13     1       0.5836925418E-04       4   13    1         0.3543454998E-02      0.8539503210E-02

    ------------------------------------------------
       NWT REQUIRED            3 OUTER ITERATIONS 
       AND A TOTAL OF          5 INNER ITERATIONS.
    ------------------------------------------------

 NO OUTPUT CONTROL FOR STRESS PERIOD   16   TIME STEP    2
 
 SOLVING FOR HEAD 
                                                   Max.-Head-Change                         Max.-Flux-Residual
  Residual-Control   Outer-Iter.   Inner-Iter.     Column Row Layer    Maximum-Head-Change  Column Row Layer    Maximum-Flux-Residual          L2-NORM 
          0                 1           2             2   13     1       0.8310157158E-02       4   13    1         0.4697914953E+00      0.1210396550E+01
          0                 2           2             4   13     1      -0.7878608679E-03       4   13    1        -0.4649390739E-01      0.1192917972E+00
          0                 3           1             4   13     1       0.5286017895E-04       4   13    1         0.3207247788E-02      0.8188486509E-02

    ------------------------------------------------
       NWT REQUIRED            3 OUTER ITERATIONS 
       AND A TOTAL OF          5 INNER ITERATIONS.
    ------------------------------------------------

 NO OUTPUT CONTROL FOR STRESS PERIOD   16   TIME STEP    3
 
 SOLVING FOR HEAD 
                                                   Max.-Head-Change                         Max.-Flux-Residual
  Residual-Control   Outer-Iter.   Inner-Iter.     Column Row Layer    Maximum-Head-Change  Column Row Layer    Maximum-Flux-Residual          L2-NORM 
          0                 1           2             2   13     1       0.7686636377E-02       2   13    1         0.4330241810E+00      0.1161150500E+01
          0                 2           2             2   13     1      -0.7148254990E-03       4   13    1        -0.4210072583E-01      0.1145666286E+00
          0                 3           1             4   13     1       0.4785797481E-04       4   13    1         0.2902069071E-02      0.7875532643E-02

    ------------------------------------------------
       NWT REQUIRED            3 OUTER ITERATIONS 
       AND A TOTAL OF          5 INNER ITERATIONS.
    ------------------------------------------------

 NO OUTPUT CONTROL FOR STRESS PERIOD   16   TIME STEP    4
 
 SOLVING FOR HEAD 
                                                   Max.-Head-Change                         Max.-Flux-Residual
  Residual-Control   Outer-Iter.   Inner-Iter.     Column Row Layer    Maximum-Head-Change  Column Row Layer    Maximum-Flux-Residual          L2-NORM 
          0                 1           2             2   13     1       0.7110327994E-02       2   13    1         0.4005162014E+00      0.1117354992E+01
          0                 2           2             2   13     1      -0.6615673353E-03       2   13    1        -0.3830624590E-01      0.1103689396E+00
          0                 3           1             4   13     1       0.4343202605E-04       4   13    1         0.2632153600E-02      0.7600048052E-02

    ------------------------------------------------
       NWT REQUIRED            3 OUTER ITERATIONS 
       AND A TOTAL OF          5 INNER ITERATIONS.
    ------------------------------------------------

 NO OUTPUT CONTROL FOR STRESS PERIOD   16   TIME STEP    5
 
 SOLVING FOR HEAD 
                                                   Max.-Head-Change                         Max.-Flux-Residual
  Residual-Control   Outer-Iter.   Inner-Iter.     Column Row Layer    Maximum-Head-Change  Column Row Layer    Maximum-Flux-Residual          L2-NORM 
          0                 1           2             2   13     1       0.6577640850E-02       2   13    1         0.3704703223E+00      0.1078411114E+01
          0                 2           2             2   13     1      -0.6122689967E-03       2   13    1        -0.3544772842E-01      0.1066351990E+00
          0                 3           1             4   13     1       0.3936771027E-04       4   13    1         0.2384374035E-02      0.7352857442E-02

    ------------------------------------------------
       NWT REQUIRED            3 OUTER ITERATIONS 
       AND A TOTAL OF          5 INNER ITERATIONS.
    ------------------------------------------------

 NO OUTPUT CONTROL FOR STRESS PERIOD   16   TIME STEP    6
 
 SOLVING FOR HEAD 
                                                   Max.-Head-Change                         Max.-Flux-Residual
  Residual-Control   Outer-Iter.   Inner-Iter.     Column Row Layer    Maximum-Head-Change  Column Row Layer    Maximum-Flux-Residual          L2-NORM 
          0                 1           2             2   13     1       0.6085375999E-02       2   13    1         0.3427060325E+00      0.1043766334E+01
          0                 2           2             2   13     1      -0.5667298388E-03       2   13    1        -0.3280737265E-01      0.1033162637E+00
          0                 3           1             2   13     1       0.3626698901E-04       4   13    1         0.2163643760E-02      0.7134541464E-02

    ------------------------------------------------
       NWT REQUIRED            3 OUTER ITERATIONS 
       AND A TOTAL OF          5 INNER ITERATIONS.
    ------------------------------------------------

 NO OUTPUT CONTROL FOR STRESS PERIOD   16   TIME STEP    7
 
 SOLVING FOR HEAD 
                                                   Max.-Head-Change                         Max.-Flux-Residual
  Residual-Control   Outer-Iter.   Inner-Iter.     Column Row Layer    Maximum-Head-Change  Column Row Layer    Maximum-Flux-Residual          L2-NORM 
          0                 1           2             2   13     1       0.5630341807E-02       2   13    1         0.3170429975E+00      0.1012918311E+01
          0                 2           2             2   13     1      -0.5245498644E-03       2   13    1        -0.3036190274E-01      0.1003591814E+00
          0                 3           1             4    7     1       0.3518577569E-04       2   13    1         0.1997352696E-02      0.6938714011E-02

    ------------------------------------------------
       NWT REQUIRED            3 OUTER ITERATIONS 
       AND A TOTAL OF          5 INNER ITERATIONS.
    ------------------------------------------------

 NO OUTPUT CONTROL FOR STRESS PERIOD   16   TIME STEP    8
 
 SOLVING FOR HEAD 
                                                   Max.-Head-Change                         Max.-Flux-Residual
  Residual-Control   Outer-Iter.   Inner-Iter.     Column Row Layer    Maximum-Head-Change  Column Row Layer    Maximum-Flux-Residual          L2-NORM 
          0                 1           2             4    7     1       0.5270368035E-02       2   13    1         0.2933244070E+00      0.9854182665E+00
          0                 2           2             4    7     1      -0.5126636052E-03       2   13    1        -0.2810163801E-01      0.9772366964E-01
          0                 3           1             4    7     1       0.3491048562E-04       4    7    1         0.1932005650E-02      0.6766442285E-02

    ------------------------------------------------
       NWT REQUIRED            3 OUTER ITERATIONS 
       AND A TOTAL OF          5 INNER ITERATIONS.
    ------------------------------------------------

 NO OUTPUT CONTROL FOR STRESS PERIOD   16   TIME STEP    9
 
 SOLVING FOR HEAD 
                                                   Max.-Head-Change                         Max.-Flux-Residual
  Residual-Control   Outer-Iter.   Inner-Iter.     Column Row Layer    Maximum-Head-Change  Column Row Layer    Maximum-Flux-Residual          L2-NORM 
          0                 1           2             4    7     1       0.5229417192E-02       4    7    1         0.2738381915E+00      0.9608638777E+00
          0                 2           2             4    7     1      -0.5086801943E-03       4    7    1        -0.2738385303E-01      0.9536920509E-01
          0                 3           1             4    7     1       0.3463923036E-04       4    7    1         0.1916870219E-02      0.6610173983E-02

    ------------------------------------------------
       NWT REQUIRED            3 OUTER ITERATIONS 
       AND A TOTAL OF          5 INNER ITERATIONS.
    ------------------------------------------------

 NO OUTPUT CONTROL FOR STRESS PERIOD   16   TIME STEP   10
 
 SOLVING FOR HEAD 
                                                   Max.-Head-Change                         Max.-Flux-Residual
  Residual-Control   Outer-Iter.   Inner-Iter.     Column Row Layer    Maximum-Head-Change  Column Row Layer    Maximum-Flux-Residual          L2-NORM 
          0                 1           2             4    7     1       0.5189189728E-02       4    7    1         0.2717149372E+00      0.9388999308E+00
          0                 2           2             4    7     1      -0.5047671489E-03       4    7    1        -0.2717152690E-01      0.9326134657E-01
          0                 3           1             4    7     1       0.3437276655E-04       4    7    1         0.1902007402E-02      0.6469921327E-02

    ------------------------------------------------
       NWT REQUIRED            3 OUTER ITERATIONS 
       AND A TOTAL OF          5 INNER ITERATIONS.
    ------------------------------------------------

 NO OUTPUT CONTROL FOR STRESS PERIOD   16   TIME STEP   11
 
 SOLVING FOR HEAD 
                                                   Max.-Head-Change                         Max.-Flux-Residual
  Residual-Control   Outer-Iter.   Inner-Iter.     Column Row Layer    Maximum-Head-Change  Column Row Layer    Maximum-Flux-Residual          L2-NORM 
          0                 1           2             4    7     1       0.5149530404E-02       4    7    1         0.2696218285E+00      0.9192114453E+00
          0                 2           2             4    7     1      -0.5009093681E-03       4    7    1        -0.2696221535E-01      0.9137204296E-01
          0                 3           1             4    7     1       0.3411006608E-04       4    7    1         0.1887355581E-02      0.6345574395E-02

    ------------------------------------------------
       NWT REQUIRED            3 OUTER ITERATIONS 
       AND A TOTAL OF          5 INNER ITERATIONS.
    ------------------------------------------------

 NO OUTPUT CONTROL FOR STRESS PERIOD   16   TIME STEP   12
 
 SOLVING FOR HEAD 
                                                   Max.-Head-Change                         Max.-Flux-Residual
  Residual-Control   Outer-Iter.   Inner-Iter.     Column Row Layer    Maximum-Head-Change  Column Row Layer    Maximum-Flux-Residual          L2-NORM 
          0                 1           2             4    7     1       0.5110561018E-02       4    7    1         0.2675655378E+00      0.9015140151E+00
          0                 2           2             4    7     1      -0.4971187000E-03       4    7    1        -0.2675658563E-01      0.8967092648E-01
          0                 3           1             4    7     1       0.3385193589E-04       4    7    1         0.1872961506E-02      0.6233236359E-02

    ------------------------------------------------
       NWT REQUIRED            3 OUTER ITERATIONS 
       AND A TOTAL OF          5 INNER ITERATIONS.
    ------------------------------------------------

 NO OUTPUT CONTROL FOR STRESS PERIOD   16   TIME STEP   13
 
 SOLVING FOR HEAD 
                                                   Max.-Head-Change                         Max.-Flux-Residual
  Residual-Control   Outer-Iter.   Inner-Iter.     Column Row Layer    Maximum-Head-Change  Column Row Layer    Maximum-Flux-Residual          L2-NORM 
          0                 1           2             4    7     1       0.5072120232E-02       4    7    1         0.2655376586E+00      0.8899091759E+00
          0                 2           2             4    7     1      -0.4933794499E-03       4    7    1        -0.2655379707E-01      0.9036203855E-01
          0                 3           1             3   13     1       0.5643227196E-04       3   13    1         0.3232766900E-02      0.6913790015E-02

    ------------------------------------------------
       NWT REQUIRED            3 OUTER ITERATIONS 
       AND A TOTAL OF          5 INNER ITERATIONS.
    ------------------------------------------------

 NO OUTPUT CONTROL FOR STRESS PERIOD   16   TIME STEP   14
 
 SOLVING FOR HEAD 
                                                   Max.-Head-Change                         Max.-Flux-Residual
  Residual-Control   Outer-Iter.   Inner-Iter.     Column Row Layer    Maximum-Head-Change  Column Row Layer    Maximum-Flux-Residual          L2-NORM 
          0                 1           2             4    7     1       0.5034329927E-02       4    7    1         0.2635445473E+00      0.8784189721E+00
          0                 2           2             4    7     1      -0.4897034748E-03       4    7    1        -0.2635448533E-01      0.8920445335E-01
          0                 3           1             3   13     1       0.5647737173E-04       3   13    1         0.3236914076E-02      0.6796873522E-02

    ------------------------------------------------
       NWT REQUIRED            3 OUTER ITERATIONS 
       AND A TOTAL OF          5 INNER ITERATIONS.
    ------------------------------------------------

 NO OUTPUT CONTROL FOR STRESS PERIOD   16   TIME STEP   15
 
 SOLVING FOR HEAD 
                                                   Max.-Head-Change                         Max.-Flux-Residual
  Residual-Control   Outer-Iter.   Inner-Iter.     Column Row Layer    Maximum-Head-Change  Column Row Layer    Maximum-Flux-Residual          L2-NORM 
          0                 1           2             4    7     1       0.4997037762E-02       4    7    1         0.2615778017E+00      0.8634753826E+00
          0                 2           2             4    7     1      -0.4860759549E-03       4    7    1        -0.2615781015E-01      0.8743818574E-01
          0                 3           1             3   13     1       0.5032123668E-04       3   13    1         0.2883116945E-02      0.6569604627E-02

    ------------------------------------------------
       NWT REQUIRED            3 OUTER ITERATIONS 
       AND A TOTAL OF          5 INNER ITERATIONS.
    ------------------------------------------------

 NO OUTPUT CONTROL FOR STRESS PERIOD   16   TIME STEP   16
 
 SOLVING FOR HEAD 
                                                   Max.-Head-Change                         Max.-Flux-Residual
  Residual-Control   Outer-Iter.   Inner-Iter.     Column Row Layer    Maximum-Head-Change  Column Row Layer    Maximum-Flux-Residual          L2-NORM 
          0                 1           2             4    7     1       0.4960229173E-02       4    7    1         0.2596368840E+00      0.8501246446E+00
          0                 2           2             4    7     1      -0.4824954777E-03       4    7    1        -0.2596371780E-01      0.8587983098E-01
          0                 3           1             3   13     1       0.4464860917E-04       3   13    1         0.2557101132E-02      0.6371684889E-02

    ------------------------------------------------
       NWT REQUIRED            3 OUTER ITERATIONS 
       AND A TOTAL OF          5 INNER ITERATIONS.
    ------------------------------------------------

 NO OUTPUT CONTROL FOR STRESS PERIOD   16   TIME STEP   17
 
 SOLVING FOR HEAD 
                                                   Max.-Head-Change                         Max.-Flux-Residual
  Residual-Control   Outer-Iter.   Inner-Iter.     Column Row Layer    Maximum-Head-Change  Column Row Layer    Maximum-Flux-Residual          L2-NORM 
          0                 1           2             4    7     1       0.4924025765E-02       4    7    1         0.2577283999E+00      0.8381348769E+00
          0                 2           2             4    7     1      -0.4789738613E-03       4    7    1        -0.2577286881E-01      0.8449939340E-01
          0                 3           1             3   13     1       0.3986443398E-04       3   13    1         0.2282296609E-02      0.6206389682E-02

    ------------------------------------------------
       NWT REQUIRED            3 OUTER ITERATIONS 
       AND A TOTAL OF          5 INNER ITERATIONS.
    ------------------------------------------------

 NO OUTPUT CONTROL FOR STRESS PERIOD   16   TIME STEP   18
 
 SOLVING FOR HEAD 
                                                   Max.-Head-Change                         Max.-Flux-Residual
  Residual-Control   Outer-Iter.   Inner-Iter.     Column Row Layer    Maximum-Head-Change  Column Row Layer    Maximum-Flux-Residual          L2-NORM 
          0                 1           2             4    7     1       0.4888410154E-02       4    7    1         0.2558512940E+00      0.8272988943E+00
          0                 2           2             4    7     1      -0.4755094259E-03       4    7    1        -0.2558515769E-01      0.8327742073E-01
          0                 3           1             3   13     1       0.3564650745E-04       3   13    1         0.2040043347E-02      0.6066060933E-02

    ------------------------------------------------
       NWT REQUIRED            3 OUTER ITERATIONS 
       AND A TOTAL OF          5 INNER ITERATIONS.
    ------------------------------------------------

 NO OUTPUT CONTROL FOR STRESS PERIOD   16   TIME STEP   19
 
 SOLVING FOR HEAD 
                                                   Max.-Head-Change                         Max.-Flux-Residual
  Residual-Control   Outer-Iter.   Inner-Iter.     Column Row Layer    Maximum-Head-Change  Column Row Layer    Maximum-Flux-Residual          L2-NORM 
          0                 1           2             4    7     1       0.4853095043E-02       4    7    1         0.2539899418E+00      0.8174499685E+00
          0                 2           2             4    7     1      -0.4720742208E-03       4    7    1        -0.2539902194E-01      0.8218161843E-01
          0                 3           1             4    7     1       0.3214649989E-04       3   13    1         0.1825960546E-02      0.5944932845E-02

    ------------------------------------------------
       NWT REQUIRED            3 OUTER ITERATIONS 
       AND A TOTAL OF          5 INNER ITERATIONS.
    ------------------------------------------------

 NO OUTPUT CONTROL FOR STRESS PERIOD   16   TIME STEP   20
 
 SOLVING FOR HEAD 
                                                   Max.-Head-Change                         Max.-Flux-Residual
  Residual-Control   Outer-Iter.   Inner-Iter.     Column Row Layer    Maximum-Head-Change  Column Row Layer    Maximum-Flux-Residual          L2-NORM 
          0                 1           2             4    7     1       0.4818480943E-02       4    7    1         0.2521662542E+00      0.8084451954E+00
          0                 2           2             4    7     1      -0.4687072049E-03       4    7    1        -0.2521665265E-01      0.8119300679E-01
          0                 3           1             4    7     1       0.3191721899E-04       4    7    1         0.1765166190E-02      0.5838733463E-02

    ------------------------------------------------
       NWT REQUIRED            3 OUTER ITERATIONS 
       AND A TOTAL OF          5 INNER ITERATIONS.
    ------------------------------------------------

 NO OUTPUT CONTROL FOR STRESS PERIOD   16   TIME STEP   21
 
 SOLVING FOR HEAD 
                                                   Max.-Head-Change                         Max.-Flux-Residual
  Residual-Control   Outer-Iter.   Inner-Iter.     Column Row Layer    Maximum-Head-Change  Column Row Layer    Maximum-Flux-Residual          L2-NORM 
          0                 1           2             4    7     1       0.4784139769E-02       4    7    1         0.2503568288E+00      0.8001611516E+00
          0                 2           2             4    7     1      -0.4653667376E-03       4    7    1        -0.2503570960E-01      0.8029850923E-01
          0                 3           1             4    7     1       0.3168974580E-04       4    7    1         0.1752500183E-02      0.5748722240E-02

    ------------------------------------------------
       NWT REQUIRED            3 OUTER ITERATIONS 
       AND A TOTAL OF          5 INNER ITERATIONS.
    ------------------------------------------------

 NO OUTPUT CONTROL FOR STRESS PERIOD   16   TIME STEP   22
 
 SOLVING FOR HEAD 
                                                   Max.-Head-Change                         Max.-Flux-Residual
  Residual-Control   Outer-Iter.   Inner-Iter.     Column Row Layer    Maximum-Head-Change  Column Row Layer    Maximum-Flux-Residual          L2-NORM 
          0                 1           2             4    7     1       0.4750473308E-02       4    7    1         0.2485836385E+00      0.7925086567E+00
          0                 2           2             4    7     1      -0.4620919021E-03       4    7    1        -0.2485839010E-01      0.7947619618E-01
          0                 3           1             4    7     1       0.3146674183E-04       4    7    1         0.1740087828E-02      0.5666982160E-02

    ------------------------------------------------
       NWT REQUIRED            3 OUTER ITERATIONS 
       AND A TOTAL OF          5 INNER ITERATIONS.
    ------------------------------------------------

 NO OUTPUT CONTROL FOR STRESS PERIOD   16   TIME STEP   23
 
 SOLVING FOR HEAD 
                                                   Max.-Head-Change                         Max.-Flux-Residual
  Residual-Control   Outer-Iter.   Inner-Iter.     Column Row Layer    Maximum-Head-Change  Column Row Layer    Maximum-Flux-Residual          L2-NORM 
          0                 1           2             4    7     1       0.4717186961E-02       4    7    1         0.2468307082E+00      0.7853927901E+00
          0                 2           2             4    7     1      -0.4588540407E-03       4    7    1        -0.2468309658E-01      0.7871885455E-01
          0                 3           1             4    7     1       0.3124625571E-04       4    7    1         0.1727817275E-02      0.5594514194E-02

    ------------------------------------------------
       NWT REQUIRED            3 OUTER ITERATIONS 
       AND A TOTAL OF          5 INNER ITERATIONS.
    ------------------------------------------------

 NO OUTPUT CONTROL FOR STRESS PERIOD   16   TIME STEP   24
 
 SOLVING FOR HEAD 
                                                   Max.-Head-Change                         Max.-Flux-Residual
  Residual-Control   Outer-Iter.   Inner-Iter.     Column Row Layer    Maximum-Head-Change  Column Row Layer    Maximum-Flux-Residual          L2-NORM 
          0                 1           2             4    7     1       0.4684275907E-02       4    7    1         0.2450974863E+00      0.7787525162E+00
          0                 2           2             4    7     1      -0.4556526860E-03       4    7    1        -0.2450977393E-01      0.7801817016E-01
          0                 3           1             4    7     1       0.3102825561E-04       4    7    1         0.1715684686E-02      0.5529408467E-02

    ------------------------------------------------
       NWT REQUIRED            3 OUTER ITERATIONS 
       AND A TOTAL OF          5 INNER ITERATIONS.
    ------------------------------------------------

 NO OUTPUT CONTROL FOR STRESS PERIOD   16   TIME STEP   25
 
 SOLVING FOR HEAD 
                                                   Max.-Head-Change                         Max.-Flux-Residual
  Residual-Control   Outer-Iter.   Inner-Iter.     Column Row Layer    Maximum-Head-Change  Column Row Layer    Maximum-Flux-Residual          L2-NORM 
          0                 1           2             4    7     1       0.4651866038E-02       4    7    1         0.2433910845E+00      0.7725124517E+00
          0                 2           2             4    7     1      -0.4525000824E-03       4    7    1        -0.2433913329E-01      0.7736500374E-01
          0                 3           1             4    7     1       0.3081357472E-04       4    7    1         0.1703739829E-02      0.5470983302E-02

    ------------------------------------------------
       NWT REQUIRED            3 OUTER ITERATIONS 
       AND A TOTAL OF          5 INNER ITERATIONS.
    ------------------------------------------------

 NO OUTPUT CONTROL FOR STRESS PERIOD   16   TIME STEP   26
 
 SOLVING FOR HEAD 
                                                   Max.-Head-Change                         Max.-Flux-Residual
  Residual-Control   Outer-Iter.   Inner-Iter.     Column Row Layer    Maximum-Head-Change  Column Row Layer    Maximum-Flux-Residual          L2-NORM 
          0                 1           2             4    7     1       0.4619808004E-02       4    7    1         0.2417033067E+00      0.7666345233E+00
          0                 2           2             4    7     1      -0.4493817033E-03       4    7    1        -0.2417035505E-01      0.7675435748E-01
          0                 3           1             4    7     1       0.3060122472E-04       4    7    1         0.1691925354E-02      0.5418034492E-02

    ------------------------------------------------
       NWT REQUIRED            3 OUTER ITERATIONS 
       AND A TOTAL OF          5 INNER ITERATIONS.
    ------------------------------------------------

 NO OUTPUT CONTROL FOR STRESS PERIOD   16   TIME STEP   27
 
 SOLVING FOR HEAD 
                                                   Max.-Head-Change                         Max.-Flux-Residual
  Residual-Control   Outer-Iter.   Inner-Iter.     Column Row Layer    Maximum-Head-Change  Column Row Layer    Maximum-Flux-Residual          L2-NORM 
          0                 1           2             4    7     1       0.4588229308E-02       4    7    1         0.2400411329E+00      0.7610762237E+00
          0                 2           2             4    7     1      -0.4463099511E-03       4    7    1        -0.2400413725E-01      0.7617973114E-01
          0                 3           1             4    7     1       0.3039205004E-04       4    7    1         0.1680290115E-02      0.5369296984E-02

    ------------------------------------------------
       NWT REQUIRED            3 OUTER ITERATIONS 
       AND A TOTAL OF          5 INNER ITERATIONS.
    ------------------------------------------------

 NO OUTPUT CONTROL FOR STRESS PERIOD   16   TIME STEP   28
 
 SOLVING FOR HEAD 
                                                   Max.-Head-Change                         Max.-Flux-Residual
  Residual-Control   Outer-Iter.   Inner-Iter.     Column Row Layer    Maximum-Head-Change  Column Row Layer    Maximum-Flux-Residual          L2-NORM 
          0                 1           2             4    7     1       0.4556983035E-02       4    7    1         0.2383964501E+00      0.7557879772E+00
          0                 2           2             4    7     1      -0.4432705348E-03       4    7    1        -0.2383966856E-01      0.7563631363E-01
          0                 3           1             4    7     1       0.3018507737E-04       4    7    1         0.1668777306E-02      0.5324604745E-02

    ------------------------------------------------
       NWT REQUIRED            3 OUTER ITERATIONS 
       AND A TOTAL OF          5 INNER ITERATIONS.
    ------------------------------------------------

 NO OUTPUT CONTROL FOR STRESS PERIOD   16   TIME STEP   29
 
 SOLVING FOR HEAD 
                                                   Max.-Head-Change                         Max.-Flux-Residual
  Residual-Control   Outer-Iter.   Inner-Iter.     Column Row Layer    Maximum-Head-Change  Column Row Layer    Maximum-Flux-Residual          L2-NORM 
          0                 1           2             4    7     1       0.4526172389E-02       4    7    1         0.2367763651E+00      0.7251298793E+00
          0                 2           2             4    7     1      -0.4402734928E-03       4    7    1        -0.2367765965E-01      0.7256307344E-01
          0                 3           1             4    7     1       0.2998098987E-04       4    7    1         0.1657436666E-02      0.5098285705E-02

    ------------------------------------------------
       NWT REQUIRED            3 OUTER ITERATIONS 
       AND A TOTAL OF          5 INNER ITERATIONS.
    ------------------------------------------------

 NO OUTPUT CONTROL FOR STRESS PERIOD   16   TIME STEP   30



 STREAM LISTING     PERIOD     16   STEP       30

 LAYER ROW COL. STREAM  RCH.  FLOW INTO     FLOW TO   FLOW OUT OF   OVRLND.     DIRECT     STREAM       STREAM     STREAM     STREAM   STREAMBED  STREAMBED
                SEG.NO.  NO.  STRM. RCH.    AQUIFER    STRM. RCH.    RUNOFF     PRECIP       ET          HEAD       DEPTH      WIDTH   CONDCTNC.   GRADIENT

   1    1    1     1     1    3.3171E+01  2.7949E-01   3.2891E+01  0.000E+00  0.000E+00  0.000E+00  1.09432E+03  1.277E+00  1.452E+01  6.535E-02  1.426E+00
   1    2    2     1     2    3.2891E+01  4.3266E-01   3.2458E+01  0.000E+00  0.000E+00  0.000E+00  1.08933E+03  1.274E+00  1.446E+01  1.012E-01  1.425E+00
   1    3    3     1     3    3.2458E+01  3.6882E-01   3.2090E+01  0.000E+00  0.000E+00  0.000E+00  1.08369E+03  1.270E+00  1.439E+01  8.637E-02  1.423E+00
   1    3    4     1     4    3.2090E+01  3.3948E-01   3.1750E+01  0.000E+00  0.000E+00  0.000E+00  1.07868E+03  1.267E+00  1.433E+01  7.955E-02  1.422E+00
   1    4    5     2     1    2.9750E+01  3.3819E-01   2.9412E+01  0.000E+00  0.000E+00  0.000E+00  1.07327E+03  1.336E+00  1.200E+01  7.800E-02  1.445E+00
   1    5    6     2     2    2.9412E+01  2.5966E-01   2.9152E+01  0.000E+00  0.000E+00  0.000E+00  1.06784E+03  1.328E+00  1.200E+01  6.000E-02  1.443E+00
   1    6    6     2     3    2.9152E+01  2.5924E-01   2.8893E+01  0.000E+00  0.000E+00  0.000E+00  1.06311E+03  1.321E+00  1.200E+01  6.000E-02  1.440E+00
   1    7    6     2     4    2.8893E+01  2.5881E-01   2.8634E+01  0.000E+00  0.000E+00  0.000E+00  1.05839E+03  1.314E+00  1.200E+01  6.000E-02  1.438E+00
   1    8    6     2     5    2.8634E+01  2.5839E-01   2.8376E+01  0.000E+00  0.000E+00  0.000E+00  1.05367E+03  1.306E+00  1.200E+01  6.000E-02  1.435E+00
   1    3    5     3     1    2.0000E+00  2.8252E-01   1.7175E+00  0.000E+00  0.000E+00  0.000E+00  1.07555E+03  1.909E+00  9.636E+00  7.227E-02  1.955E+00
   1    3    6     3     2    1.7175E+00  2.4905E-01   1.4684E+00  0.000E+00  0.000E+00  0.000E+00  1.07264E+03  1.727E+00  8.909E+00  6.682E-02  1.864E+00
   1    3    7     3     3    1.4684E+00  1.9718E-01   1.2712E+00  0.000E+00  0.000E+00  0.000E+00  1.06987E+03  1.555E+00  8.218E+00  5.547E-02  1.777E+00
   1    4    8     3     4    1.2712E+00  2.2567E-01   1.0456E+00  0.000E+00  0.000E+00  0.000E+00  1.06682E+03  1.364E+00  7.455E+00  6.709E-02  1.682E+00
   1    5    8     3     5    1.0456E+00  1.5790E-01   8.8768E-01  0.000E+00  0.000E+00  0.000E+00  1.06362E+03  1.164E+00  6.655E+00  4.991E-02  1.582E+00
   1    6    8     3     6    8.8768E-01  5.5980E-02   8.3170E-01  0.000E+00  0.000E+00  0.000E+00  1.06158E+03  1.036E+00  6.145E+00  1.844E-02  1.518E+00
   1    5   10     4     1    1.0000E+01  9.0919E-02   9.9091E+00  0.000E+00  0.000E+00  0.000E+00  1.07836E+03  6.368E-01  1.000E+01  2.500E-02  1.212E+00
   1    5    9     4     2    9.9091E+00  1.8158E-01   9.7275E+00  0.000E+00  0.000E+00  0.000E+00  1.07154E+03  6.315E-01  1.000E+01  5.000E-02  1.211E+00
   1    6    8     4     3    9.7275E+00  1.2689E-01   9.6006E+00  0.000E+00  0.000E+00  0.000E+00  1.06381E+03  6.256E-01  1.000E+01  3.500E-02  1.209E+00
   1    6    8     5     1    1.0432E+01  2.2686E-01   1.0205E+01  0.000E+00  0.000E+00  0.000E+00  1.05868E+03  6.790E-01  1.542E+01  6.166E-02  1.226E+00
   1    7    7     5     2    1.0205E+01  2.7894E-01   9.9265E+00  0.000E+00  0.000E+00  0.000E+00  1.05417E+03  6.732E-01  1.519E+01  7.594E-02  1.224E+00
   1    8    7     5     3    9.9265E+00  1.9221E-01   9.7343E+00  0.000E+00  0.000E+00  0.000E+00  1.04992E+03  6.676E-01  1.497E+01  5.241E-02  1.223E+00
   1    8    6     5     4    9.7343E+00  1.3577E-01   9.5985E+00  0.000E+00  0.000E+00  0.000E+00  1.04691E+03  6.637E-01  1.482E+01  3.706E-02  1.221E+00
   1    9    6     6     1    3.7974E+01  2.7395E-01   3.7700E+01  0.000E+00  0.000E+00  0.000E+00  1.04429E+03  1.566E+00  1.200E+01  6.000E-02  1.522E+00
   1   10    7     6     2    3.7700E+01  2.7354E-01   3.7427E+01  0.000E+00  0.000E+00  0.000E+00  1.03974E+03  1.559E+00  1.200E+01  6.000E-02  1.520E+00
   1   11    7     6     3    3.7427E+01  2.7313E-01   3.7154E+01  0.000E+00  0.000E+00  0.000E+00  1.03519E+03  1.552E+00  1.200E+01  6.000E-02  1.517E+00
   1   12    7     6     4    3.7154E+01  2.7272E-01   3.6881E+01  0.000E+00  0.000E+00  0.000E+00  1.03064E+03  1.545E+00  1.200E+01  6.000E-02  1.515E+00
   1   13    7     6     5    3.6881E+01  1.5151E-02   3.6866E+01  0.000E+00  0.000E+00  0.000E+00  1.02745E+03  1.542E+00  1.200E+01  2.400E-02  2.104E-01
   1   14    9     7     1    1.5000E+02  1.3705E+00   1.4863E+02  0.000E+00  0.000E+00  0.000E+00  1.03987E+03  2.288E+00  5.529E+01  5.593E-01  8.168E-01
   1   13    8     7     2    1.4863E+02  1.9253E+00   1.4670E+02  0.000E+00  0.000E+00  0.000E+00  1.03478E+03  2.279E+00  5.525E+01  6.148E-01  1.044E+00
   1   13    7     7     3    1.4670E+02  1.6022E+00   1.4510E+02  0.000E+00  0.000E+00  0.000E+00  1.02969E+03  2.269E+00  5.521E+01  5.584E-01  9.564E-01
   1   13    6     8     1    1.8197E+02  1.0949E+00   1.8087E+02  0.000E+00  0.000E+00  0.000E+00  1.02490E+03  3.025E+00  4.386E+01  4.470E-01  8.165E-01
   1   13    5     8     2    1.8087E+02  3.1082E-01   1.8056E+02  0.000E+00  0.000E+00  0.000E+00  1.01865E+03  3.021E+00  4.380E+01  4.463E-01  2.321E-01
   1   13    4     8     3    1.8056E+02 -2.0794E+00   1.8264E+02  0.000E+00  0.000E+00  0.000E+00  1.01240E+03  3.026E+00  4.388E+01  4.472E+00 -1.550E-01
   1   13    3     8     4    1.8264E+02 -3.5111E+00   1.8615E+02  0.000E+00  0.000E+00  0.000E+00  1.00617E+03  3.044E+00  4.413E+01  4.497E+00 -2.602E-01
   1   13    2     8     5    1.8615E+02 -2.5246E+00   1.8868E+02  0.000E+00  0.000E+00  0.000E+00  9.99937E+02  3.062E+00  4.440E+01  4.525E+00 -1.860E-01
   1   13    1     8     6    1.8868E+02 -1.9240E+00   1.9060E+02  0.000E+00  0.000E+00  0.000E+00  9.94951E+02  3.076E+00  4.460E+01  2.727E+00 -2.352E-01
   1    8    6     9     1    0.0000E+00  0.0000E+00   0.0000E+00  0.000E+00  0.000E+00  0.000E+00  1.07875E+03  0.000E+00  4.000E+00  0.000E+00  1.000E+00
   1    8    5     9     2    0.0000E+00  0.0000E+00   0.0000E+00  0.000E+00  0.000E+00  0.000E+00  1.07825E+03  0.000E+00  4.000E+00  0.000E+00  1.000E+00





UNSATURATED ZONE PACKAGE VOLUMETRIC BUDGET FOR  TIME STEP    30 STRESS PERIOD   16
  ------------------------------------------------------------------------------



     CUMULATIVE VOLUMES      L**3       RATES FOR THIS TIME STEP      L**3/T
     ------------------                 ------------------------

           IN:                                      IN:
           ---                                      ---
        INFILTRATION =   573617014.4680          INFILTRATION =           4.4075

          OUT:                                     OUT:
          ----                                     ----
              UZF ET =   503267533.0164                UZF ET =           0.7250
        UZF RECHARGE =      172890.8970          UZF RECHARGE =           0.0343

            IN - OUT =    70176590.5547              IN - OUT =           3.6482

          STORAGE:                                 STORAGE:
          --------                                 --------
      STORAGE CHANGE =    70176583.4530        STORAGE CHANGE =           3.6482

 PERCENT DISCREPANCY IS DIFFERENCE BETWEEN IN-OUT MINUS CHANGE IN STORAGE
 DIVIDED BY THE AVERAGE OF IN AND OUT TIMES 100

 PERCENT DISCREPANCY =           0.00     PERCENT DISCREPANCY =           0.00






1
  VOLUMETRIC BUDGET FOR AGRICULTURAL FIELDS AT  END OF TIME STEP   30, STRESS PERIOD  16
  ------------------------------------------------------------------------------

     CUMULATIVE VOLUMES      L**3       RATES FOR THIS TIME STEP      L**3/T
     ------------------                 ------------------------

           IN:                                      IN:
           ---                                      ---
               AG WELLS  =   174751168.0000                 AG WELLS  =           0.0000
      DIVERSION SEGMENTS =   224912208.0000        DIVERSION SEGMENTS =           0.0000
           GW IRRIGATION =           0.0000             GW IRRIGATION =           0.0000
           SW IRRIGATION =           0.0000             SW IRRIGATION =           0.0000
        SYSTEM LOSSES GW =           0.0000          SYSTEM LOSSES GW =           0.0000
        SYSTEM LOSSES SW =           0.0000          SYSTEM LOSSES SW =           0.0000

                TOTAL IN =   399663360.0000                  TOTAL IN =           0.0000

          OUT:                                     OUT:
          ----                                     ----
               AG WELLS  =           0.0000                 AG WELLS  =           0.0000
      DIVERSION SEGMENTS =           0.0000        DIVERSION SEGMENTS =           0.0000
           GW IRRIGATION =   174751168.0000             GW IRRIGATION =           0.0000
           SW IRRIGATION =   224916624.0000             SW IRRIGATION =           0.0000
        SYSTEM LOSSES GW =           0.0000          SYSTEM LOSSES GW =           0.0000
        SYSTEM LOSSES SW =           0.0000          SYSTEM LOSSES SW =           0.0000

               TOTAL OUT =   399667776.0000                 TOTAL OUT =           0.0000

                IN - OUT =       -4416.0000                  IN - OUT =           0.0000

     PERCENT DISCREPANCY =          -0.00         PERCENT DISCREPANCY =           0.00



1
  VOLUMETRIC BUDGET FOR ENTIRE MODEL AT END OF TIME STEP   30, STRESS PERIOD  16
  ------------------------------------------------------------------------------

     CUMULATIVE VOLUMES      L**3       RATES FOR THIS TIME STEP      L**3/T
     ------------------                 ------------------------

           IN:                                      IN:
           ---                                      ---
             STORAGE     =   268451904.0000               STORAGE     =           1.1511
       CONSTANT HEAD     =           0.0000         CONSTANT HEAD     =           0.0000
     HEAD DEP BOUNDS     =    11385137.0000       HEAD DEP BOUNDS     =           0.2881
      STREAM LEAKAGE     =   462859744.0000        STREAM LEAKAGE     =          12.6084
        UZF RECHARGE     =      172890.8594          UZF RECHARGE     =       3.4254E-02
               GW ET     =           0.0000                 GW ET     =           0.0000
     SURFACE LEAKAGE     =           0.0000       SURFACE LEAKAGE     =           0.0000
           AG WELLS      =           0.0000             AG WELLS      =           0.0000

                TOTAL IN =   742869696.0000                  TOTAL IN =          14.0819

          OUT:                                     OUT:
          ----                                     ----
             STORAGE     =   151101904.0000               STORAGE     =           3.7527
       CONSTANT HEAD     =           0.0000         CONSTANT HEAD     =           0.0000
     HEAD DEP BOUNDS     =    11385142.0000       HEAD DEP BOUNDS     =           0.2909
      STREAM LEAKAGE     =   405617440.0000        STREAM LEAKAGE     =          10.0391
        UZF RECHARGE     =           0.0000          UZF RECHARGE     =           0.0000
               GW ET     =           0.0000                 GW ET     =           0.0000
     SURFACE LEAKAGE     =           0.0000       SURFACE LEAKAGE     =           0.0000
           AG WELLS      =   174751168.0000             AG WELLS      =           0.0000

               TOTAL OUT =   742855616.0000                 TOTAL OUT =          14.0827

                IN - OUT =       14080.0000                  IN - OUT =      -8.2016E-04

     PERCENT DISCREPANCY =           0.00         PERCENT DISCREPANCY =          -0.01






         TIME SUMMARY AT END OF TIME STEP   30 IN STRESS PERIOD   16
                    SECONDS     MINUTES      HOURS       DAYS        YEARS
                    -----------------------------------------------------------
   TIME STEP LENGTH  87667.      1461.1      24.352      1.0147     2.77799E-03
 STRESS PERIOD TIME 2.63000E+06  43833.      730.56      30.440     8.33397E-02
         TOTAL TIME 3.95364E+07 6.58940E+05  10982.      457.60      1.2528    
1
1
                            STRESS PERIOD NO.   17, LENGTH =   2630000.    
                            -----------------------------------------------

                              NUMBER OF TIME STEPS =    30

                               MULTIPLIER FOR DELT =     1.000

                            INITIAL TIME STEP SIZE =   87666.66    

 REUSING NON-PARAMETER GHB CELLS FROM LAST STRESS PERIOD

      2 GHB CELLS

 REUSING STREAM SEGMENT DATA FROM LAST STRESS PERIOD



            AREAL INFILTRATION RATE
 READING ON UNIT   19 WITH FORMAT: (10F4.0)            

            1           2           3           4           5           6           7           8           9          10
 ........................................................................................................................
   1   1.2000E-09   0.000       0.000       0.000       0.000       0.000       0.000       0.000       0.000       0.000    
   2   2.1000E-09  2.0000E-09  8.0000E-10  8.5000E-09   0.000       0.000       0.000       0.000       0.000       0.000    
   3   5.0000E-10  1.1000E-09  8.8000E-09  5.5000E-09   0.000       0.000       0.000       0.000       0.000       0.000    
   4   8.5000E-09  1.1000E-09  1.1000E-09  1.1000E-09  2.0000E-09   0.000       0.000       0.000       0.000       0.000    
   5   8.5000E-09  1.1000E-09  1.1000E-09  1.1000E-09  1.1000E-09   0.000       0.000       0.000       0.000       0.000    
   6   8.5000E-09  5.2000E-09  2.1000E-09  1.1000E-09  1.5000E-09   0.000       0.000       0.000       0.000       0.000    
   7   8.5000E-09  5.2000E-09  2.1000E-09  1.2000E-09  2.0000E-09   0.000       0.000       0.000       0.000       0.000    
   8   5.0000E-10  5.2000E-09  2.1000E-09  1.2000E-09  5.0000E-09   0.000       0.000       0.000       0.000       0.000    
   9   5.0000E-10  5.2000E-09  2.1000E-09  1.2000E-09  5.0000E-09   0.000       0.000       0.000       0.000       0.000    
  10   5.0000E-10  5.2000E-09  2.1000E-09  1.2000E-09  5.8000E-09   0.000       0.000       0.000       0.000       0.000    
  11   1.0000E-10  1.1000E-09  1.1000E-09  1.2000E-09  5.0000E-09   0.000       0.000       0.000       0.000       0.000    
  12   1.1000E-09  1.1000E-09  1.1000E-09  1.1000E-09  2.0000E-09   0.000       0.000       0.000       0.000       0.000    
  13   1.1000E-09  2.2000E-09  2.2000E-09  2.1000E-09  1.0000E-09   0.000       0.000       0.000       0.000       0.000    
  14   2.0000E-10  5.5000E-09  5.5000E-09  5.2000E-09  1.0000E-09   0.000       0.000       0.000       0.000       0.000    
  15    0.000      8.8000E-09  8.8000E-09   0.000       0.000       0.000       0.000       0.000       0.000       0.000    

                  ET RATE =  2.500000E-08

 USING ET EXTINCTION DEPTH FROM PREVIOUS STRESS PERIOD. CURRENT PERIOD IS:      17

 USING EXTINCTION WATER CONTENT FROM PREVIOUS STRESS PERIOD. CURRENT PERIOD IS:      17

 USING AIR ENTRY PRESSURE FROM PREVIOUS STRESS PERIOD. CURRENT PERIOD IS:      17

 USING ROOT PRESSURE HEAD FROM PREVIOUS STRESS PERIOD. CURRENT PERIOD IS:      17

 USING ROOT ACTIVITY FROM PREVIOUS STRESS PERIOD. CURRENT PERIOD IS:      17

 PROCESSING AG STRESS PERIOD DATA

 READING AG STRESS PERIOD DATA

 READING IRRIGATION SEGMENT

 READING IRRIGATION WELL

 READING SUPPLEMENTAL WELL

 END PROCESSING AG STRESS PERIOD DATA OPTIONS
 
 SOLVING FOR HEAD 
                                                   Max.-Head-Change                         Max.-Flux-Residual
  Residual-Control   Outer-Iter.   Inner-Iter.     Column Row Layer    Maximum-Head-Change  Column Row Layer    Maximum-Flux-Residual          L2-NORM 
          0                 1           2             4    7     1       0.4495613529E-02       4    7    1         0.2351715042E+00      0.7283358648E+00
          0                 2           2             4    7     1      -0.4373009433E-03       4    7    1        -0.2351717318E-01      0.7357613244E-01
          0                 3           1             3   13     1      -0.3662393965E-04       3   13    1        -0.2096924950E-02      0.5435688933E-02

    ------------------------------------------------
       NWT REQUIRED            3 OUTER ITERATIONS 
       AND A TOTAL OF          5 INNER ITERATIONS.
    ------------------------------------------------

 NO OUTPUT CONTROL FOR STRESS PERIOD   17   TIME STEP    1
 
 SOLVING FOR HEAD 
                                                   Max.-Head-Change                         Max.-Flux-Residual
  Residual-Control   Outer-Iter.   Inner-Iter.     Column Row Layer    Maximum-Head-Change  Column Row Layer    Maximum-Flux-Residual          L2-NORM 
          0                 1           2             4    7     1       0.4465442488E-02       4    7    1         0.2335870597E+00      0.7187994634E+00
          0                 2           2             4    7     1      -0.4343661191E-03       4    7    1        -0.2335872838E-01      0.7244582705E-01
          0                 3           1             3   13     1      -0.3753818793E-04       3   13    1        -0.2146054380E-02      0.5501277312E-02

    ------------------------------------------------
       NWT REQUIRED            3 OUTER ITERATIONS 
       AND A TOTAL OF          5 INNER ITERATIONS.
    ------------------------------------------------

 NO OUTPUT CONTROL FOR STRESS PERIOD   17   TIME STEP    2
 
 SOLVING FOR HEAD 
                                                   Max.-Head-Change                         Max.-Flux-Residual
  Residual-Control   Outer-Iter.   Inner-Iter.     Column Row Layer    Maximum-Head-Change  Column Row Layer    Maximum-Flux-Residual          L2-NORM 
          0                 1           2             4    7     1       0.4435650339E-02       4    7    1         0.2320227231E+00      0.7103658198E+00
          0                 2           2             3   13     1      -0.8459219544E-03       3   13    1        -0.4819654361E-01      0.9622335044E-01
          0                 3           2             3   13     1      -0.2558176668E-03       3   13    1        -0.1462455130E-01      0.1825400806E-01
          0                 4           1             3   13     1      -0.5944917114E-04       3   13    1        -0.3406505494E-02      0.3781734837E-02

    ------------------------------------------------
       NWT REQUIRED            4 OUTER ITERATIONS 
       AND A TOTAL OF          7 INNER ITERATIONS.
    ------------------------------------------------

 NO OUTPUT CONTROL FOR STRESS PERIOD   17   TIME STEP    3
 
 SOLVING FOR HEAD 
                                                   Max.-Head-Change                         Max.-Flux-Residual
  Residual-Control   Outer-Iter.   Inner-Iter.     Column Row Layer    Maximum-Head-Change  Column Row Layer    Maximum-Flux-Residual          L2-NORM 
          0                 1           2             4    7     1       0.4406107118E-02       4    7    1         0.2304712592E+00      0.7010588812E+00
          0                 2           2             3   13     1      -0.8085398266E-03       3   13    1        -0.4602241348E-01      0.9562790973E-01
          0                 3           2             3   13     1      -0.4119421925E-03       3   13    1        -0.2343432319E-01      0.3489201554E-01
          0                 4           2             3   13     1      -0.2072186264E-03       3   13    1        -0.1178992155E-01      0.1725443464E-01
          0                 5           1             3   13     1      -0.1015502234E-03       3   13    1        -0.5778527343E-02      0.8397748530E-02
          0                 6           1             3   13     1      -0.5039005148E-04       3   13    1        -0.2866940423E-02      0.4189398787E-02

    ------------------------------------------------
       NWT REQUIRED            6 OUTER ITERATIONS 
       AND A TOTAL OF         10 INNER ITERATIONS.
    ------------------------------------------------

 NO OUTPUT CONTROL FOR STRESS PERIOD   17   TIME STEP    4
 
 SOLVING FOR HEAD 
                                                   Max.-Head-Change                         Max.-Flux-Residual
  Residual-Control   Outer-Iter.   Inner-Iter.     Column Row Layer    Maximum-Head-Change  Column Row Layer    Maximum-Flux-Residual          L2-NORM 
          0                 1           2             4    7     1       0.4376933601E-02       4    7    1         0.2289394609E+00      0.6939268260E+00
          0                 2           2             3   13     1      -0.7813141308E-03       3   13    1        -0.4442612964E-01      0.9571281004E-01
          0                 3           2             3   13     1      -0.3963754132E-03       3   13    1        -0.2253720827E-01      0.3430651255E-01
          0                 4           2             4   13     1      -0.1496922550E-03       4   13    1        -0.8578188666E-02      0.1493754140E-01
          0                 5           1             4   13     1      -0.7271534050E-04       4   13    1        -0.4169248614E-02      0.7132048361E-02

    ------------------------------------------------
       NWT REQUIRED            5 OUTER ITERATIONS 
       AND A TOTAL OF          9 INNER ITERATIONS.
    ------------------------------------------------

 NO OUTPUT CONTROL FOR STRESS PERIOD   17   TIME STEP    5
 
 SOLVING FOR HEAD 
                                                   Max.-Head-Change                         Max.-Flux-Residual
  Residual-Control   Outer-Iter.   Inner-Iter.     Column Row Layer    Maximum-Head-Change  Column Row Layer    Maximum-Flux-Residual          L2-NORM 
          0                 1           2             4    7     1       0.4347988041E-02       4    7    1         0.2274194771E+00      0.6874939959E+00
          0                 2           2             3   13     1      -0.7725677129E-03       3   13    1        -0.4390012403E-01      0.9614343255E-01
          0                 3           2             4   13     1      -0.2978890100E-03       4   13    1        -0.1709710883E-01      0.2893227795E-01
          0                 4           2             4   13     1      -0.1476856453E-03       4   13    1        -0.8465657023E-02      0.1460019243E-01
          0                 5           1             4   13     1      -0.7208371207E-04       4   13    1        -0.4132806666E-02      0.7081130855E-02

    ------------------------------------------------
       NWT REQUIRED            5 OUTER ITERATIONS 
       AND A TOTAL OF          9 INNER ITERATIONS.
    ------------------------------------------------

 NO OUTPUT CONTROL FOR STRESS PERIOD   17   TIME STEP    6
 
 SOLVING FOR HEAD 
                                                   Max.-Head-Change                         Max.-Flux-Residual
  Residual-Control   Outer-Iter.   Inner-Iter.     Column Row Layer    Maximum-Head-Change  Column Row Layer    Maximum-Flux-Residual          L2-NORM 
          0                 1           2             4    7     1       0.4319404687E-02       4    7    1         0.2259186748E+00      0.6816159636E+00
          0                 2           2             3   13     1      -0.6326656349E-03       3   13    1        -0.3581796776E-01      0.9338877986E-01
          0                 3           2             4   13     1      -0.2950345719E-03       4   13    1        -0.1692378802E-01      0.2910075416E-01
          0                 4           2             4   13     1      -0.1497987813E-03       4   13    1        -0.8587776395E-02      0.1475783329E-01
          0                 5           1             4   13     1      -0.7275435169E-04       4   13    1        -0.4171177565E-02      0.7149019158E-02

    ------------------------------------------------
       NWT REQUIRED            5 OUTER ITERATIONS 
       AND A TOTAL OF          9 INNER ITERATIONS.
    ------------------------------------------------

 NO OUTPUT CONTROL FOR STRESS PERIOD   17   TIME STEP    7
 
 SOLVING FOR HEAD 
                                                   Max.-Head-Change                         Max.-Flux-Residual
  Residual-Control   Outer-Iter.   Inner-Iter.     Column Row Layer    Maximum-Head-Change  Column Row Layer    Maximum-Flux-Residual          L2-NORM 
          0                 1           2             4    7     1       0.4291041748E-02       4    7    1         0.2244292901E+00      0.6762130272E+00
          0                 2           2             4   13     1      -0.6413053484E-03       4   13    1        -0.3675757007E-01      0.9196779517E-01
          0                 3           2             4   13     1      -0.2957272186E-03       4   13    1        -0.1695676358E-01      0.2949110815E-01
          0                 4           2             4   13     1      -0.1507741733E-03       4   13    1        -0.8644368284E-02      0.1481929525E-01
          0                 5           1             4   13     1      -0.7477223696E-04       4   13    1        -0.4286752009E-02      0.7354214490E-02

    ------------------------------------------------
       NWT REQUIRED            5 OUTER ITERATIONS 
       AND A TOTAL OF          9 INNER ITERATIONS.
    ------------------------------------------------

 NO OUTPUT CONTROL FOR STRESS PERIOD   17   TIME STEP    8
 
 SOLVING FOR HEAD 
                                                   Max.-Head-Change                         Max.-Flux-Residual
  Residual-Control   Outer-Iter.   Inner-Iter.     Column Row Layer    Maximum-Head-Change  Column Row Layer    Maximum-Flux-Residual          L2-NORM 
          0                 1           2             4    7     1       0.4263032840E-02       4    7    1         0.2229586963E+00      0.6711020115E+00
          0                 2           2             4   13     1      -0.6623727039E-03       4   13    1        -0.3799140560E-01      0.9230123652E-01
          0                 3           2             4   13     1      -0.2930332250E-03       4   13    1        -0.1679978958E-01      0.2935420936E-01
          0                 4           2             4   13     1      -0.1507059678E-03       4   13    1        -0.8640674018E-02      0.1480051612E-01
          0                 5           1             4   13     1      -0.7527088022E-04       4   13    1        -0.4315334591E-02      0.7400959993E-02

    ------------------------------------------------
       NWT REQUIRED            5 OUTER ITERATIONS 
       AND A TOTAL OF          9 INNER ITERATIONS.
    ------------------------------------------------

 NO OUTPUT CONTROL FOR STRESS PERIOD   17   TIME STEP    9
 
 SOLVING FOR HEAD 
                                                   Max.-Head-Change                         Max.-Flux-Residual
  Residual-Control   Outer-Iter.   Inner-Iter.     Column Row Layer    Maximum-Head-Change  Column Row Layer    Maximum-Flux-Residual          L2-NORM 
          0                 1           2             4    7     1       0.4235236687E-02       4    7    1         0.2214990958E+00      0.6664445503E+00
          0                 2           2             4   13     1      -0.6809223628E-03       4   13    1        -0.3905875018E-01      0.9320364992E-01
          0                 3           2             4   13     1      -0.2915762570E-03       4   13    1        -0.1671592741E-01      0.2923175580E-01
          0                 4           2             4   13     1      -0.1492862374E-03       4   13    1        -0.8559288513E-02      0.1465831235E-01
          0                 5           1             4   13     1      -0.7464230065E-04       4   13    1        -0.4279297075E-02      0.7341277007E-02

    ------------------------------------------------
       NWT REQUIRED            5 OUTER ITERATIONS 
       AND A TOTAL OF          9 INNER ITERATIONS.
    ------------------------------------------------

 NO OUTPUT CONTROL FOR STRESS PERIOD   17   TIME STEP   10
 
 SOLVING FOR HEAD 
                                                   Max.-Head-Change                         Max.-Flux-Residual
  Residual-Control   Outer-Iter.   Inner-Iter.     Column Row Layer    Maximum-Head-Change  Column Row Layer    Maximum-Flux-Residual          L2-NORM 
          0                 1           2             4    7     1       0.4207788769E-02       4    7    1         0.2200578893E+00      0.6623203101E+00
          0                 2           2             4   13     1      -0.6971466334E-03       4   13    1        -0.3999213485E-01      0.9400219862E-01
          0                 3           2             4   13     1      -0.2884786649E-03       4   13    1        -0.1653807058E-01      0.2894486293E-01
          0                 4           2             4   13     1      -0.1508782196E-03       4   13    1        -0.8650585990E-02      0.1481223433E-01
          0                 5           1             4   13     1      -0.7534759203E-04       4   13    1        -0.4319728871E-02      0.7409874007E-02

    ------------------------------------------------
       NWT REQUIRED            5 OUTER ITERATIONS 
       AND A TOTAL OF          9 INNER ITERATIONS.
    ------------------------------------------------

 NO OUTPUT CONTROL FOR STRESS PERIOD   17   TIME STEP   11
 
 SOLVING FOR HEAD 
                                                   Max.-Head-Change                         Max.-Flux-Residual
  Residual-Control   Outer-Iter.   Inner-Iter.     Column Row Layer    Maximum-Head-Change  Column Row Layer    Maximum-Flux-Residual          L2-NORM 
          0                 1           2             4    7     1       0.4180676833E-02       4    7    1         0.2186347385E+00      0.6586401943E+00
          0                 2           2             4   13     1      -0.7118516412E-03       4   13    1        -0.4083788631E-01      0.9473978301E-01
          0                 3           2             4   13     1      -0.2879526517E-03       4   13    1        -0.1650769412E-01      0.2890355596E-01
          0                 4           2             4   13     1      -0.1513630757E-03       4   13    1        -0.8678389781E-02      0.1485857196E-01
          0                 5           1             4   13     1      -0.7524649377E-04       4   13    1        -0.4313926007E-02      0.7400469882E-02

    ------------------------------------------------
       NWT REQUIRED            5 OUTER ITERATIONS 
       AND A TOTAL OF          9 INNER ITERATIONS.
    ------------------------------------------------

 NO OUTPUT CONTROL FOR STRESS PERIOD   17   TIME STEP   12
 
 SOLVING FOR HEAD 
                                                   Max.-Head-Change                         Max.-Flux-Residual
  Residual-Control   Outer-Iter.   Inner-Iter.     Column Row Layer    Maximum-Head-Change  Column Row Layer    Maximum-Flux-Residual          L2-NORM 
          0                 1           2             4    7     1       0.4153760867E-02       4    7    1         0.2172216451E+00      0.6553037488E+00
          0                 2           2             4   13     1      -0.7027280052E-03       4   13    1        -0.4144662306E-01      0.9522175099E-01
          0                 3           2             4   13     1      -0.3021838000E-03       4   13    1        -0.1782270579E-01      0.2973611433E-01
          0                 4           2             4   13     1      -0.1551774403E-03       4   13    1        -0.9150818562E-02      0.1520118241E-01
          0                 5           1             4   13     1      -0.7742032162E-04       4   13    1        -0.4565409855E-02      0.7566445059E-02

    ------------------------------------------------
       NWT REQUIRED            5 OUTER ITERATIONS 
       AND A TOTAL OF          9 INNER ITERATIONS.
    ------------------------------------------------

 NO OUTPUT CONTROL FOR STRESS PERIOD   17   TIME STEP   13
 
 SOLVING FOR HEAD 
                                                   Max.-Head-Change                         Max.-Flux-Residual
  Residual-Control   Outer-Iter.   Inner-Iter.     Column Row Layer    Maximum-Head-Change  Column Row Layer    Maximum-Flux-Residual          L2-NORM 
          0                 1           2             4    7     1       0.4127179672E-02       4    7    1         0.2158260755E+00      0.6522674330E+00
          0                 2           2             4   13     1      -0.7163569949E-03       4   13    1        -0.4225172123E-01      0.9598206131E-01
          0                 3           2             4   13     1      -0.3001117810E-03       4   13    1        -0.1770066776E-01      0.2969342027E-01
          0                 4           2             4   13     1      -0.1547503260E-03       4   13    1        -0.9125592447E-02      0.1522542874E-01
          0                 5           1             4   13     1      -0.7735776299E-04       4   13    1        -0.4561713011E-02      0.7595932939E-02

    ------------------------------------------------
       NWT REQUIRED            5 OUTER ITERATIONS 
       AND A TOTAL OF          9 INNER ITERATIONS.
    ------------------------------------------------

 NO OUTPUT CONTROL FOR STRESS PERIOD   17   TIME STEP   14
 
 SOLVING FOR HEAD 
                                                   Max.-Head-Change                         Max.-Flux-Residual
  Residual-Control   Outer-Iter.   Inner-Iter.     Column Row Layer    Maximum-Head-Change  Column Row Layer    Maximum-Flux-Residual          L2-NORM 
          0                 1           2             4    7     1       0.4100921162E-02       4    7    1         0.2144478634E+00      0.6494633693E+00
          0                 2           2             4   13     1      -0.7275763323E-03       4   13    1        -0.4291443671E-01      0.9659531490E-01
          0                 3           2             4   13     1      -0.2976214435E-03       4   13    1        -0.1755396111E-01      0.3003977241E-01
          0                 4           2             4   13     1      -0.1546771139E-03       4   13    1        -0.9121215771E-02      0.1541763794E-01
          0                 5           1             4   13     1      -0.7721627784E-04       4   13    1        -0.4553373937E-02      0.7696092510E-02

    ------------------------------------------------
       NWT REQUIRED            5 OUTER ITERATIONS 
       AND A TOTAL OF          9 INNER ITERATIONS.
    ------------------------------------------------

 NO OUTPUT CONTROL FOR STRESS PERIOD   17   TIME STEP   15
 
 SOLVING FOR HEAD 
                                                   Max.-Head-Change                         Max.-Flux-Residual
  Residual-Control   Outer-Iter.   Inner-Iter.     Column Row Layer    Maximum-Head-Change  Column Row Layer    Maximum-Flux-Residual          L2-NORM 
          0                 1           2             4    7     1       0.4074846484E-02       4    7    1         0.2130790192E+00      0.6468482184E+00
          0                 2           2             4   13     1      -0.7371241603E-03       4   13    1        -0.4347833706E-01      0.9710722463E-01
          0                 3           2             4   13     1      -0.2975781583E-03       4   13    1        -0.1755149736E-01      0.3002017011E-01
          0                 4           2             4   13     1      -0.1546112692E-03       4   13    1        -0.9117319107E-02      0.1541908986E-01
          0                 5           1             4   13     1      -0.7738347203E-04       4   13    1        -0.4563231013E-02      0.7712834736E-02

    ------------------------------------------------
       NWT REQUIRED            5 OUTER ITERATIONS 
       AND A TOTAL OF          9 INNER ITERATIONS.
    ------------------------------------------------

 NO OUTPUT CONTROL FOR STRESS PERIOD   17   TIME STEP   16
 
 SOLVING FOR HEAD 
                                                   Max.-Head-Change                         Max.-Flux-Residual
  Residual-Control   Outer-Iter.   Inner-Iter.     Column Row Layer    Maximum-Head-Change  Column Row Layer    Maximum-Flux-Residual          L2-NORM 
          0                 1           2             4    7     1       0.4048957837E-02       4    7    1         0.2117197064E+00      0.6443917638E+00
          0                 2           2             4   13     1      -0.7436437739E-03       4   13    1        -0.4386349428E-01      0.9741138113E-01
          0                 3           2             4   13     1      -0.2987066794E-03       4   13    1        -0.1760753866E-01      0.3063991433E-01
          0                 4           2             4   13     1      -0.1555342550E-03       4   13    1        -0.9168232577E-02      0.1568659724E-01
          0                 5           1             4   13     1      -0.7763030221E-04       4   13    1        -0.4575813015E-02      0.7835315691E-02

    ------------------------------------------------
       NWT REQUIRED            5 OUTER ITERATIONS 
       AND A TOTAL OF          9 INNER ITERATIONS.
    ------------------------------------------------

 NO OUTPUT CONTROL FOR STRESS PERIOD   17   TIME STEP   17
 
 SOLVING FOR HEAD 
                                                   Max.-Head-Change                         Max.-Flux-Residual
  Residual-Control   Outer-Iter.   Inner-Iter.     Column Row Layer    Maximum-Head-Change  Column Row Layer    Maximum-Flux-Residual          L2-NORM 
          0                 1           2             4    7     1       0.4023519842E-02       4    7    1         0.2103847656E+00      0.6420480330E+00
          0                 2           2             4   13     1      -0.7506852801E-03       4   13    1        -0.4427920776E-01      0.9777042670E-01
          0                 3           2             4   13     1      -0.3001763059E-03       4   13    1        -0.1769406394E-01      0.3078694022E-01
          0                 4           2             4   13     1      -0.1550674533E-03       4   13    1        -0.9140734959E-02      0.1563925993E-01
          0                 5           1             4   13     1      -0.7752944334E-04       4   13    1        -0.4569861753E-02      0.7824994322E-02

    ------------------------------------------------
       NWT REQUIRED            5 OUTER ITERATIONS 
       AND A TOTAL OF          9 INNER ITERATIONS.
    ------------------------------------------------

 NO OUTPUT CONTROL FOR STRESS PERIOD   17   TIME STEP   18
 
 SOLVING FOR HEAD 
                                                   Max.-Head-Change                         Max.-Flux-Residual
  Residual-Control   Outer-Iter.   Inner-Iter.     Column Row Layer    Maximum-Head-Change  Column Row Layer    Maximum-Flux-Residual          L2-NORM 
          0                 1           2             4    7     1       0.3998254894E-02       4    7    1         0.2090584642E+00      0.6398137746E+00
          0                 2           2             4   13     1      -0.7592708879E-03       4   13    1        -0.4478573026E-01      0.9826343370E-01
          0                 3           2             4   13     1      -0.2992780492E-03       4   13    1        -0.1764105846E-01      0.3069485429E-01
          0                 4           2             4   13     1      -0.1552479979E-03       4   13    1        -0.9151365202E-02      0.1565822428E-01
          0                 5           1             4   13     1      -0.7718825882E-04       4   13    1        -0.4549745013E-02      0.7791086188E-02

    ------------------------------------------------
       NWT REQUIRED            5 OUTER ITERATIONS 
       AND A TOTAL OF          9 INNER ITERATIONS.
    ------------------------------------------------

 NO OUTPUT CONTROL FOR STRESS PERIOD   17   TIME STEP   19
 
 SOLVING FOR HEAD 
                                                   Max.-Head-Change                         Max.-Flux-Residual
  Residual-Control   Outer-Iter.   Inner-Iter.     Column Row Layer    Maximum-Head-Change  Column Row Layer    Maximum-Flux-Residual          L2-NORM 
          0                 1           2             4    7     1       0.3973158336E-02       4    7    1         0.2077411350E+00      0.6376455455E+00
          0                 2           2             4   13     1      -0.7664132851E-03       4   13    1        -0.4520702429E-01      0.9865940439E-01
          0                 3           2             4   13     1      -0.2981440420E-03       4   13    1        -0.1757417116E-01      0.3057933526E-01
          0                 4           2             4   13     1      -0.1550614308E-03       4   13    1        -0.9140374864E-02      0.1563850132E-01
          0                 5           1             4   13     1      -0.7718695025E-04       4   13    1        -0.4549663159E-02      0.7791578819E-02

    ------------------------------------------------
       NWT REQUIRED            5 OUTER ITERATIONS 
       AND A TOTAL OF          9 INNER ITERATIONS.
    ------------------------------------------------

 NO OUTPUT CONTROL FOR STRESS PERIOD   17   TIME STEP   20
 
 SOLVING FOR HEAD 
                                                   Max.-Head-Change                         Max.-Flux-Residual
  Residual-Control   Outer-Iter.   Inner-Iter.     Column Row Layer    Maximum-Head-Change  Column Row Layer    Maximum-Flux-Residual          L2-NORM 
          0                 1           2             4    7     1       0.3948370221E-02       4    7    1         0.2064398999E+00      0.6355424190E+00
          0                 2           2             4   13     1      -0.7725584489E-03       4   13    1        -0.4556940773E-01      0.9899057317E-01
          0                 3           2             4   13     1      -0.2980178300E-03       4   13    1        -0.1756669405E-01      0.3056359868E-01
          0                 4           2             4   13     1      -0.1551265474E-03       4   13    1        -0.9144211233E-02      0.1564557679E-01
          0                 5           1             4   13     1      -0.7721612979E-04       4   13    1        -0.4551379860E-02      0.7794842517E-02

    ------------------------------------------------
       NWT REQUIRED            5 OUTER ITERATIONS 
       AND A TOTAL OF          9 INNER ITERATIONS.
    ------------------------------------------------

 NO OUTPUT CONTROL FOR STRESS PERIOD   17   TIME STEP   21
 
 SOLVING FOR HEAD 
                                                   Max.-Head-Change                         Max.-Flux-Residual
  Residual-Control   Outer-Iter.   Inner-Iter.     Column Row Layer    Maximum-Head-Change  Column Row Layer    Maximum-Flux-Residual          L2-NORM 
          0                 1           2             4    7     1       0.3923881681E-02       4    7    1         0.2051546575E+00      0.6334890884E+00
          0                 2           2             4   13     1      -0.7762113450E-03       4   13    1        -0.4578477647E-01      0.9913743872E-01
          0                 3           2             4   13     1      -0.2977314535E-03       4   13    1        -0.1754980288E-01      0.3053147595E-01
          0                 4           2             4   13     1      -0.1552833688E-03       4   13    1        -0.9153450978E-02      0.1566221519E-01
          0                 5           1             4   13     1      -0.7734319816E-04       4   13    1        -0.4558874475E-02      0.7807379172E-02

    ------------------------------------------------
       NWT REQUIRED            5 OUTER ITERATIONS 
       AND A TOTAL OF          9 INNER ITERATIONS.
    ------------------------------------------------

 NO OUTPUT CONTROL FOR STRESS PERIOD   17   TIME STEP   22
 
 SOLVING FOR HEAD 
                                                   Max.-Head-Change                         Max.-Flux-Residual
  Residual-Control   Outer-Iter.   Inner-Iter.     Column Row Layer    Maximum-Head-Change  Column Row Layer    Maximum-Flux-Residual          L2-NORM 
          0                 1           2             4    7     1       0.3899687153E-02       4    7    1         0.2038849477E+00      0.6314779904E+00
          0                 2           2             4   13     1      -0.7795174327E-03       4   13    1        -0.4597958773E-01      0.9926592419E-01
          0                 3           2             4   13     1      -0.2987153339E-03       4   13    1        -0.1760779823E-01      0.3062485674E-01
          0                 4           2             4   13     1      -0.1557476516E-03       4   13    1        -0.9180813641E-02      0.1571009493E-01
          0                 5           1             4   13     1      -0.7753831284E-04       4   13    1        -0.4570375119E-02      0.7826900549E-02

    ------------------------------------------------
       NWT REQUIRED            5 OUTER ITERATIONS 
       AND A TOTAL OF          9 INNER ITERATIONS.
    ------------------------------------------------

 NO OUTPUT CONTROL FOR STRESS PERIOD   17   TIME STEP   23
 
 SOLVING FOR HEAD 
                                                   Max.-Head-Change                         Max.-Flux-Residual
  Residual-Control   Outer-Iter.   Inner-Iter.     Column Row Layer    Maximum-Head-Change  Column Row Layer    Maximum-Flux-Residual          L2-NORM 
          0                 1           2             4    7     1       0.3875645420E-02       4    7    1         0.2026231186E+00      0.6294905332E+00
          0                 2           2             4   13     1      -0.7852012867E-03       4   13    1        -0.4631447240E-01      0.9958592665E-01
          0                 3           2             4   13     1      -0.2970967753E-03       4   13    1        -0.1751238174E-01      0.3045932500E-01
          0                 4           2             4   13     1      -0.1562645255E-03       4   13    1        -0.9211271861E-02      0.1576249447E-01
          0                 5           1             4   13     1      -0.7745201649E-04       4   13    1        -0.4565280847E-02      0.7818623232E-02

    ------------------------------------------------
       NWT REQUIRED            5 OUTER ITERATIONS 
       AND A TOTAL OF          9 INNER ITERATIONS.
    ------------------------------------------------

 NO OUTPUT CONTROL FOR STRESS PERIOD   17   TIME STEP   24
 
 SOLVING FOR HEAD 
                                                   Max.-Head-Change                         Max.-Flux-Residual
  Residual-Control   Outer-Iter.   Inner-Iter.     Column Row Layer    Maximum-Head-Change  Column Row Layer    Maximum-Flux-Residual          L2-NORM 
          0                 1           2             4    7     1       0.3851891427E-02       4    7    1         0.2013765754E+00      0.6275273349E+00
          0                 2           2             4   13     1      -0.7903294289E-03       4   13    1        -0.4661654439E-01      0.9986832639E-01
          0                 3           2             4   13     1      -0.2966879109E-03       4   13    1        -0.1748826699E-01      0.3041517933E-01
          0                 4           2             4   13     1      -0.1555894150E-03       4   13    1        -0.9171471838E-02      0.1569526158E-01
          0                 5           1             4   13     1      -0.7761932333E-04       4   13    1        -0.4575135831E-02      0.7835610032E-02

    ------------------------------------------------
       NWT REQUIRED            5 OUTER ITERATIONS 
       AND A TOTAL OF          9 INNER ITERATIONS.
    ------------------------------------------------

 NO OUTPUT CONTROL FOR STRESS PERIOD   17   TIME STEP   25
 
 SOLVING FOR HEAD 
                                                   Max.-Head-Change                         Max.-Flux-Residual
  Residual-Control   Outer-Iter.   Inner-Iter.     Column Row Layer    Maximum-Head-Change  Column Row Layer    Maximum-Flux-Residual          L2-NORM 
          0                 1           2             4    7     1       0.3828288407E-02       4    7    1         0.2001375875E+00      0.6255865147E+00
          0                 2           2             4   13     1      -0.7937577589E-03       4   13    1        -0.4681836894E-01      0.1000229598E+00
          0                 3           2             4   13     1      -0.2957045800E-03       4   13    1        -0.1743031007E-01      0.3031302888E-01
          0                 4           2             4   13     1      -0.1555975666E-03       4   13    1        -0.9171946237E-02      0.1569585821E-01
          0                 5           1             4   13     1      -0.7771240206E-04       4   13    1        -0.4580617709E-02      0.7845855880E-02

    ------------------------------------------------
       NWT REQUIRED            5 OUTER ITERATIONS 
       AND A TOTAL OF          9 INNER ITERATIONS.
    ------------------------------------------------

 NO OUTPUT CONTROL FOR STRESS PERIOD   17   TIME STEP   26
 
 SOLVING FOR HEAD 
                                                   Max.-Head-Change                         Max.-Flux-Residual
  Residual-Control   Outer-Iter.   Inner-Iter.     Column Row Layer    Maximum-Head-Change  Column Row Layer    Maximum-Flux-Residual          L2-NORM 
          0                 1           2             4    7     1       0.3804968124E-02       4    7    1         0.1989137911E+00      0.6236578593E+00
          0                 2           2             4   13     1      -0.7983561999E-03       4   13    1        -0.4708908819E-01      0.1002753041E+00
          0                 3           2             4   13     1      -0.2940105678E-03       4   13    1        -0.1733045657E-01      0.3014378715E-01
          0                 4           2             4   13     1      -0.1551659403E-03       4   13    1        -0.9146496232E-02      0.1565575072E-01
          0                 5           1             4   13     1      -0.7748231544E-04       4   13    1        -0.4567059067E-02      0.7821686064E-02

    ------------------------------------------------
       NWT REQUIRED            5 OUTER ITERATIONS 
       AND A TOTAL OF          9 INNER ITERATIONS.
    ------------------------------------------------

 NO OUTPUT CONTROL FOR STRESS PERIOD   17   TIME STEP   27
 
 SOLVING FOR HEAD 
                                                   Max.-Head-Change                         Max.-Flux-Residual
  Residual-Control   Outer-Iter.   Inner-Iter.     Column Row Layer    Maximum-Head-Change  Column Row Layer    Maximum-Flux-Residual          L2-NORM 
          0                 1           2             4    7     1       0.3781925660E-02       4    7    1         0.1977046544E+00      0.6217367475E+00
          0                 2           2             4   13     1      -0.7998855419E-03       4   13    1        -0.4717886349E-01      0.1002896744E+00
          0                 3           2             4   13     1      -0.2959627762E-03       4   13    1        -0.1744556781E-01      0.3033194833E-01
          0                 4           2             4   13     1      -0.1557523520E-03       4   13    1        -0.9181054535E-02      0.1571399278E-01
          0                 5           1             4   13     1      -0.7748243587E-04       4   13    1        -0.4567060419E-02      0.7823034894E-02

    ------------------------------------------------
       NWT REQUIRED            5 OUTER ITERATIONS 
       AND A TOTAL OF          9 INNER ITERATIONS.
    ------------------------------------------------

 NO OUTPUT CONTROL FOR STRESS PERIOD   17   TIME STEP   28
 
 SOLVING FOR HEAD 
                                                   Max.-Head-Change                         Max.-Flux-Residual
  Residual-Control   Outer-Iter.   Inner-Iter.     Column Row Layer    Maximum-Head-Change  Column Row Layer    Maximum-Flux-Residual          L2-NORM 
          0                 1           2             4    7     1       0.3759023549E-02       4    7    1         0.1965025585E+00      0.6198237826E+00
          0                 2           2             4   13     1      -0.8040128949E-03       4   13    1        -0.4742176659E-01      0.1005109585E+00
          0                 3           2             4   13     1      -0.2957370590E-03       4   13    1        -0.1743226739E-01      0.3030589290E-01
          0                 4           2             4   13     1      -0.1536418466E-03       4   13    1        -0.9056652626E-02      0.1550157124E-01
          0                 5           1             4   13     1      -0.7665556382E-04       4   13    1        -0.4518317561E-02      0.7740132945E-02

    ------------------------------------------------
       NWT REQUIRED            5 OUTER ITERATIONS 
       AND A TOTAL OF          9 INNER ITERATIONS.
    ------------------------------------------------

 NO OUTPUT CONTROL FOR STRESS PERIOD   17   TIME STEP   29
 
 SOLVING FOR HEAD 
                                                   Max.-Head-Change                         Max.-Flux-Residual
  Residual-Control   Outer-Iter.   Inner-Iter.     Column Row Layer    Maximum-Head-Change  Column Row Layer    Maximum-Flux-Residual          L2-NORM 
          0                 1           2             4    7     1       0.3736368530E-02       4    7    1         0.1953151036E+00      0.5963093155E+00
          0                 2           2             4   13     1      -0.6944216843E-03       4   13    1        -0.3982337243E-01      0.8961189252E-01
          0                 3           2             4   13     1      -0.2889704321E-03       4   13    1        -0.1656059608E-01      0.2882115863E-01
          0                 4           2             4   13     1      -0.1510733018E-03       4   13    1        -0.8658392153E-02      0.1481814567E-01
          0                 5           1             4   13     1      -0.7511569745E-04       4   13    1        -0.4304833255E-02      0.7376224024E-02

    ------------------------------------------------
       NWT REQUIRED            5 OUTER ITERATIONS 
       AND A TOTAL OF          9 INNER ITERATIONS.
    ------------------------------------------------

 NO OUTPUT CONTROL FOR STRESS PERIOD   17   TIME STEP   30



 STREAM LISTING     PERIOD     17   STEP       30

 LAYER ROW COL. STREAM  RCH.  FLOW INTO     FLOW TO   FLOW OUT OF   OVRLND.     DIRECT     STREAM       STREAM     STREAM     STREAM   STREAMBED  STREAMBED
                SEG.NO.  NO.  STRM. RCH.    AQUIFER    STRM. RCH.    RUNOFF     PRECIP       ET          HEAD       DEPTH      WIDTH   CONDCTNC.   GRADIENT

   1    1    1     1     1    2.4716E+01  2.4383E-01   2.4472E+01  0.000E+00  0.000E+00  0.000E+00  1.09422E+03  1.174E+00  1.298E+01  5.842E-02  1.391E+00
   1    2    2     1     2    2.4472E+01  3.7705E-01   2.4095E+01  0.000E+00  0.000E+00  0.000E+00  1.08923E+03  1.169E+00  1.292E+01  9.043E-02  1.390E+00
   1    3    3     1     3    2.4095E+01  3.2100E-01   2.3774E+01  0.000E+00  0.000E+00  0.000E+00  1.08358E+03  1.164E+00  1.285E+01  7.709E-02  1.388E+00
   1    3    4     1     4    2.3774E+01  2.9513E-01   2.3479E+01  0.000E+00  0.000E+00  0.000E+00  1.07857E+03  1.159E+00  1.278E+01  7.096E-02  1.386E+00
   1    4    5     2     1    2.1479E+01  3.1960E-01   2.1159E+01  0.000E+00  0.000E+00  0.000E+00  1.07303E+03  1.097E+00  1.200E+01  7.800E-02  1.366E+00
   1    5    6     2     2    2.1159E+01  2.4532E-01   2.0914E+01  0.000E+00  0.000E+00  0.000E+00  1.06760E+03  1.089E+00  1.200E+01  6.000E-02  1.363E+00
   1    6    6     2     3    2.0914E+01  2.4487E-01   2.0669E+01  0.000E+00  0.000E+00  0.000E+00  1.06287E+03  1.081E+00  1.200E+01  6.000E-02  1.360E+00
   1    7    6     2     4    2.0669E+01  2.4441E-01   2.0424E+01  0.000E+00  0.000E+00  0.000E+00  1.05815E+03  1.073E+00  1.200E+01  6.000E-02  1.358E+00
   1    8    6     2     5    2.0424E+01  2.4395E-01   2.0180E+01  0.000E+00  0.000E+00  0.000E+00  1.05342E+03  1.066E+00  1.200E+01  6.000E-02  1.355E+00
   1    3    5     3     1    2.0000E+00  2.8252E-01   1.7175E+00  0.000E+00  0.000E+00  0.000E+00  1.07555E+03  1.909E+00  9.636E+00  7.227E-02  1.955E+00
   1    3    6     3     2    1.7175E+00  2.4905E-01   1.4684E+00  0.000E+00  0.000E+00  0.000E+00  1.07264E+03  1.727E+00  8.909E+00  6.682E-02  1.864E+00
   1    3    7     3     3    1.4684E+00  1.9718E-01   1.2712E+00  0.000E+00  0.000E+00  0.000E+00  1.06987E+03  1.555E+00  8.218E+00  5.547E-02  1.777E+00
   1    4    8     3     4    1.2712E+00  2.2567E-01   1.0456E+00  0.000E+00  0.000E+00  0.000E+00  1.06682E+03  1.364E+00  7.455E+00  6.709E-02  1.682E+00
   1    5    8     3     5    1.0456E+00  1.5790E-01   8.8768E-01  0.000E+00  0.000E+00  0.000E+00  1.06362E+03  1.164E+00  6.655E+00  4.991E-02  1.582E+00
   1    6    8     3     6    8.8768E-01  5.5980E-02   8.3170E-01  0.000E+00  0.000E+00  0.000E+00  1.06158E+03  1.036E+00  6.145E+00  1.844E-02  1.518E+00
   1    5   10     4     1    1.0000E+01  9.0919E-02   9.9091E+00  0.000E+00  0.000E+00  0.000E+00  1.07836E+03  6.368E-01  1.000E+01  2.500E-02  1.212E+00
   1    5    9     4     2    9.9091E+00  1.8158E-01   9.7275E+00  0.000E+00  0.000E+00  0.000E+00  1.07154E+03  6.315E-01  1.000E+01  5.000E-02  1.211E+00
   1    6    8     4     3    9.7275E+00  1.2689E-01   9.6006E+00  0.000E+00  0.000E+00  0.000E+00  1.06381E+03  6.256E-01  1.000E+01  3.500E-02  1.209E+00
   1    6    8     5     1    1.0432E+01  2.2686E-01   1.0205E+01  0.000E+00  0.000E+00  0.000E+00  1.05868E+03  6.790E-01  1.542E+01  6.166E-02  1.226E+00
   1    7    7     5     2    1.0205E+01  2.7894E-01   9.9265E+00  0.000E+00  0.000E+00  0.000E+00  1.05417E+03  6.732E-01  1.519E+01  7.594E-02  1.224E+00
   1    8    7     5     3    9.9265E+00  1.9221E-01   9.7343E+00  0.000E+00  0.000E+00  0.000E+00  1.04992E+03  6.676E-01  1.497E+01  5.241E-02  1.223E+00
   1    8    6     5     4    9.7343E+00  1.3577E-01   9.5985E+00  0.000E+00  0.000E+00  0.000E+00  1.04691E+03  6.637E-01  1.482E+01  3.706E-02  1.221E+00
   1    9    6     6     1    2.6311E+01  2.5552E-01   2.6055E+01  0.000E+00  0.000E+00  0.000E+00  1.04399E+03  1.259E+00  1.200E+01  6.000E-02  1.420E+00
   1   10    7     6     2    2.6055E+01  2.5508E-01   2.5800E+01  0.000E+00  0.000E+00  0.000E+00  1.03943E+03  1.251E+00  1.200E+01  6.000E-02  1.417E+00
   1   11    7     6     3    2.5800E+01  2.5464E-01   2.5546E+01  0.000E+00  0.000E+00  0.000E+00  1.03488E+03  1.244E+00  1.200E+01  6.000E-02  1.415E+00
   1   12    7     6     4    2.5546E+01  2.5419E-01   2.5292E+01  0.000E+00  0.000E+00  0.000E+00  1.03033E+03  1.237E+00  1.200E+01  6.000E-02  1.412E+00
   1   13    7     6     5    2.5292E+01  7.7079E-03   2.5284E+01  0.000E+00  0.000E+00  0.000E+00  1.02714E+03  1.233E+00  1.200E+01  2.400E-02  1.071E-01
   1   14    9     7     1    1.5000E+02  1.3708E+00   1.4863E+02  0.000E+00  0.000E+00  0.000E+00  1.03987E+03  2.288E+00  5.529E+01  5.593E-01  8.170E-01
   1   13    8     7     2    1.4863E+02  1.9258E+00   1.4670E+02  0.000E+00  0.000E+00  0.000E+00  1.03478E+03  2.279E+00  5.525E+01  6.148E-01  1.044E+00
   1   13    7     7     3    1.4670E+02  1.6016E+00   1.4510E+02  0.000E+00  0.000E+00  0.000E+00  1.02969E+03  2.269E+00  5.521E+01  5.584E-01  9.560E-01
   1   13    6     8     1    1.7039E+02  1.0385E+00   1.6935E+02  0.000E+00  0.000E+00  0.000E+00  1.02483E+03  2.952E+00  4.280E+01  4.362E-01  7.936E-01
   1   13    5     8     2    1.6935E+02  2.7231E-01   1.6907E+02  0.000E+00  0.000E+00  0.000E+00  1.01857E+03  2.948E+00  4.274E+01  4.356E-01  2.084E-01
   1   13    4     8     3    1.6907E+02 -2.1850E+00   1.7126E+02  0.000E+00  0.000E+00  0.000E+00  1.01233E+03  2.954E+00  4.283E+01  4.365E+00 -1.669E-01
   1   13    3     8     4    1.7126E+02 -3.5565E+00   1.7482E+02  0.000E+00  0.000E+00  0.000E+00  1.00610E+03  2.973E+00  4.310E+01  4.392E+00 -2.699E-01
   1   13    2     8     5    1.7482E+02 -2.6086E+00   1.7742E+02  0.000E+00  0.000E+00  0.000E+00  9.99867E+02  2.992E+00  4.339E+01  4.421E+00 -1.967E-01
   1   13    1     8     6    1.7742E+02 -2.0167E+00   1.7944E+02  0.000E+00  0.000E+00  0.000E+00  9.94882E+02  3.007E+00  4.360E+01  2.666E+00 -2.522E-01
   1    8    6     9     1    3.4681E+00  0.0000E+00   3.4681E+00  0.000E+00  0.000E+00  0.000E+00  1.07993E+03  1.177E+00  4.000E+00  0.000E+00  1.392E+00
   1    8    5     9     2    3.4681E+00  0.0000E+00   3.4681E+00  0.000E+00  0.000E+00  0.000E+00  1.07943E+03  1.177E+00  4.000E+00  0.000E+00  1.392E+00





UNSATURATED ZONE PACKAGE VOLUMETRIC BUDGET FOR  TIME STEP    30 STRESS PERIOD   17
  ------------------------------------------------------------------------------



     CUMULATIVE VOLUMES      L**3       RATES FOR THIS TIME STEP      L**3/T
     ------------------                 ------------------------

           IN:                                      IN:
           ---                                      ---
        INFILTRATION =   593621975.8743          INFILTRATION =           7.8756

          OUT:                                     OUT:
          ----                                     ----
              UZF ET =   535691945.9072                UZF ET =           7.8010
        UZF RECHARGE =      175481.8973          UZF RECHARGE =       0.0000E+00

            IN - OUT =    57754548.0698              IN - OUT =       7.4595E-02

          STORAGE:                                 STORAGE:
          --------                                 --------
      STORAGE CHANGE =    57754540.7129        STORAGE CHANGE =       7.4595E-02

 PERCENT DISCREPANCY IS DIFFERENCE BETWEEN IN-OUT MINUS CHANGE IN STORAGE
 DIVIDED BY THE AVERAGE OF IN AND OUT TIMES 100

 PERCENT DISCREPANCY =           0.00     PERCENT DISCREPANCY =           0.00






1
  VOLUMETRIC BUDGET FOR AGRICULTURAL FIELDS AT  END OF TIME STEP   30, STRESS PERIOD  17
  ------------------------------------------------------------------------------

     CUMULATIVE VOLUMES      L**3       RATES FOR THIS TIME STEP      L**3/T
     ------------------                 ------------------------

           IN:                                      IN:
           ---                                      ---
               AG WELLS  =   174751168.0000                 AG WELLS  =           0.0000
      DIVERSION SEGMENTS =   233325232.0000        DIVERSION SEGMENTS =           3.4681
           GW IRRIGATION =           0.0000             GW IRRIGATION =           0.0000
           SW IRRIGATION =           0.0000             SW IRRIGATION =           0.0000
        SYSTEM LOSSES GW =           0.0000          SYSTEM LOSSES GW =           0.0000
        SYSTEM LOSSES SW =           0.0000          SYSTEM LOSSES SW =           0.0000

                TOTAL IN =   408076416.0000                  TOTAL IN =           3.4681

          OUT:                                     OUT:
          ----                                     ----
               AG WELLS  =           0.0000                 AG WELLS  =           0.0000
      DIVERSION SEGMENTS =           0.0000        DIVERSION SEGMENTS =           0.0000
           GW IRRIGATION =   174751168.0000             GW IRRIGATION =           0.0000
           SW IRRIGATION =   233329888.0000             SW IRRIGATION =           3.4681
        SYSTEM LOSSES GW =           0.0000          SYSTEM LOSSES GW =           0.0000
        SYSTEM LOSSES SW =           0.0000          SYSTEM LOSSES SW =           0.0000

               TOTAL OUT =   408081056.0000                 TOTAL OUT =           3.4681

                IN - OUT =       -4640.0000                  IN - OUT =      -6.9380E-05

     PERCENT DISCREPANCY =          -0.00         PERCENT DISCREPANCY =          -0.00



1
  VOLUMETRIC BUDGET FOR ENTIRE MODEL AT END OF TIME STEP   30, STRESS PERIOD  17
  ------------------------------------------------------------------------------

     CUMULATIVE VOLUMES      L**3       RATES FOR THIS TIME STEP      L**3/T
     ------------------                 ------------------------

           IN:                                      IN:
           ---                                      ---
             STORAGE     =   271783424.0000               STORAGE     =           1.2741
       CONSTANT HEAD     =           0.0000         CONSTANT HEAD     =           0.0000
     HEAD DEP BOUNDS     =    12142921.0000       HEAD DEP BOUNDS     =           0.2881
      STREAM LEAKAGE     =   495292768.0000        STREAM LEAKAGE     =          12.1728
        UZF RECHARGE     =      175481.8594          UZF RECHARGE     =           0.0000
               GW ET     =           0.0000                 GW ET     =           0.0000
     SURFACE LEAKAGE     =           0.0000       SURFACE LEAKAGE     =           0.0000
           AG WELLS      =           0.0000             AG WELLS      =           0.0000

                TOTAL IN =   779394560.0000                  TOTAL IN =          13.7350

          OUT:                                     OUT:
          ----                                     ----
             STORAGE     =   159791984.0000               STORAGE     =           3.0763
       CONSTANT HEAD     =           0.0000         CONSTANT HEAD     =           0.0000
     HEAD DEP BOUNDS     =    12149332.0000       HEAD DEP BOUNDS     =           0.2903
      STREAM LEAKAGE     =   432685024.0000        STREAM LEAKAGE     =          10.3667
        UZF RECHARGE     =           0.0000          UZF RECHARGE     =           0.0000
               GW ET     =           0.0000                 GW ET     =           0.0000
     SURFACE LEAKAGE     =           0.0000       SURFACE LEAKAGE     =           0.0000
           AG WELLS      =   174751168.0000             AG WELLS      =           0.0000

               TOTAL OUT =   779377472.0000                 TOTAL OUT =          13.7333

                IN - OUT =       17088.0000                  IN - OUT =       1.7061E-03

     PERCENT DISCREPANCY =           0.00         PERCENT DISCREPANCY =           0.01






         TIME SUMMARY AT END OF TIME STEP   30 IN STRESS PERIOD   17
                    SECONDS     MINUTES      HOURS       DAYS        YEARS
                    -----------------------------------------------------------
   TIME STEP LENGTH  87667.      1461.1      24.352      1.0147     2.77799E-03
 STRESS PERIOD TIME 2.63000E+06  43833.      730.56      30.440     8.33397E-02
         TOTAL TIME 4.21664E+07 7.02774E+05  11713.      488.04      1.3362    
1
1
                            STRESS PERIOD NO.   18, LENGTH =   2630000.    
                            -----------------------------------------------

                              NUMBER OF TIME STEPS =    30

                               MULTIPLIER FOR DELT =     1.000

                            INITIAL TIME STEP SIZE =   87666.66    

 REUSING NON-PARAMETER GHB CELLS FROM LAST STRESS PERIOD

      2 GHB CELLS

 REUSING STREAM SEGMENT DATA FROM LAST STRESS PERIOD



            AREAL INFILTRATION RATE
 READING ON UNIT   19 WITH FORMAT: (10F4.0)            

            1           2           3           4           5           6           7           8           9          10
 ........................................................................................................................
   1   1.2000E-09   0.000       0.000       0.000       0.000       0.000       0.000       0.000       0.000       0.000    
   2   2.1000E-09  2.0000E-09  8.0000E-10  8.5000E-09   0.000       0.000       0.000       0.000       0.000       0.000    
   3   5.0000E-10  1.1000E-09  8.8000E-09  5.5000E-09   0.000       0.000       0.000       0.000       0.000       0.000    
   4   8.5000E-09  1.1000E-09  1.1000E-09  1.1000E-09  2.0000E-09   0.000       0.000       0.000       0.000       0.000    
   5   8.5000E-09  1.1000E-09  1.1000E-09  1.1000E-09  1.1000E-09   0.000       0.000       0.000       0.000       0.000    
   6   8.5000E-09  5.2000E-09  2.1000E-09  1.1000E-09  1.5000E-09   0.000       0.000       0.000       0.000       0.000    
   7   8.5000E-09  5.2000E-09  2.1000E-09  1.2000E-09  2.0000E-09   0.000       0.000       0.000       0.000       0.000    
   8   5.0000E-10  5.2000E-09  2.1000E-09  1.2000E-09  5.0000E-09   0.000       0.000       0.000       0.000       0.000    
   9   5.0000E-10  5.2000E-09  2.1000E-09  1.2000E-09  5.0000E-09   0.000       0.000       0.000       0.000       0.000    
  10   5.0000E-10  5.2000E-09  2.1000E-09  1.2000E-09  5.8000E-09   0.000       0.000       0.000       0.000       0.000    
  11   1.0000E-10  1.1000E-09  1.1000E-09  1.2000E-09  5.0000E-09   0.000       0.000       0.000       0.000       0.000    
  12   1.1000E-09  1.1000E-09  1.1000E-09  1.1000E-09  2.0000E-09   0.000       0.000       0.000       0.000       0.000    
  13   1.1000E-09  2.2000E-09  2.2000E-09  2.1000E-09  1.0000E-09   0.000       0.000       0.000       0.000       0.000    
  14   2.0000E-10  5.5000E-09  5.5000E-09  5.2000E-09  1.0000E-09   0.000       0.000       0.000       0.000       0.000    
  15    0.000      8.8000E-09  8.8000E-09   0.000       0.000       0.000       0.000       0.000       0.000       0.000    

                  ET RATE =  5.000000E-08

 USING ET EXTINCTION DEPTH FROM PREVIOUS STRESS PERIOD. CURRENT PERIOD IS:      18

 USING EXTINCTION WATER CONTENT FROM PREVIOUS STRESS PERIOD. CURRENT PERIOD IS:      18

 USING AIR ENTRY PRESSURE FROM PREVIOUS STRESS PERIOD. CURRENT PERIOD IS:      18

 USING ROOT PRESSURE HEAD FROM PREVIOUS STRESS PERIOD. CURRENT PERIOD IS:      18

 USING ROOT ACTIVITY FROM PREVIOUS STRESS PERIOD. CURRENT PERIOD IS:      18

 PROCESSING AG STRESS PERIOD DATA

 READING AG STRESS PERIOD DATA

 READING IRRIGATION SEGMENT

 READING IRRIGATION WELL

 READING SUPPLEMENTAL WELL

 END PROCESSING AG STRESS PERIOD DATA OPTIONS
 
 SOLVING FOR HEAD 
                                                   Max.-Head-Change                         Max.-Flux-Residual
  Residual-Control   Outer-Iter.   Inner-Iter.     Column Row Layer    Maximum-Head-Change  Column Row Layer    Maximum-Flux-Residual          L2-NORM 
          0                 1           2             4    7     1       0.3713947941E-02       4    7    1         0.1941404602E+00      0.5918935387E+00
          0                 2           2             4   13     1      -0.1410389825E-02       4   13    1        -0.8083426322E-01      0.1490255131E+00
          0                 3           2             4   13     1      -0.5968380563E-03       4   13    1        -0.3418619472E-01      0.5890871491E-01
          0                 4           2             4   13     1      -0.1612032775E-03       4   13    1        -0.9233479541E-02      0.1584197817E-01
          0                 5           1             4   13     1      -0.3934448226E-04       4   13    1        -0.2253493170E-02      0.3870186889E-02

    ------------------------------------------------
       NWT REQUIRED            5 OUTER ITERATIONS 
       AND A TOTAL OF          9 INNER ITERATIONS.
    ------------------------------------------------

 NO OUTPUT CONTROL FOR STRESS PERIOD   18   TIME STEP    1
 
 SOLVING FOR HEAD 
                                                   Max.-Head-Change                         Max.-Flux-Residual
  Residual-Control   Outer-Iter.   Inner-Iter.     Column Row Layer    Maximum-Head-Change  Column Row Layer    Maximum-Flux-Residual          L2-NORM 
          0                 1           2             4    7     1       0.3691623694E-02       4    7    1         0.1929706063E+00      0.5876277032E+00
          0                 2           2             4   13     1      -0.1441951800E-02       4   13    1        -0.8265061376E-01      0.1513865093E+00
          0                 3           2             4   13     1      -0.5908731794E-03       4   13    1        -0.3384372141E-01      0.5836911888E-01
          0                 4           2             4   13     1      -0.3055140786E-03       4   13    1        -0.1749865960E-01      0.2994904125E-01
          0                 5           2             4   13     1      -0.1520917397E-03       4   13    1        -0.8710437736E-02      0.1492574136E-01
          0                 6           1             4   13     1      -0.7637615106E-04       4   13    1        -0.4373964353E-02      0.7495742591E-02

    ------------------------------------------------
       NWT REQUIRED            6 OUTER ITERATIONS 
       AND A TOTAL OF         11 INNER ITERATIONS.
    ------------------------------------------------

 NO OUTPUT CONTROL FOR STRESS PERIOD   18   TIME STEP    2
 
 SOLVING FOR HEAD 
                                                   Max.-Head-Change                         Max.-Flux-Residual
  Residual-Control   Outer-Iter.   Inner-Iter.     Column Row Layer    Maximum-Head-Change  Column Row Layer    Maximum-Flux-Residual          L2-NORM 
          0                 1           2             4    7     1       0.3669539027E-02       4    7    1         0.1918131127E+00      0.5843214517E+00
          0                 2           2             4   13     1      -0.1433038042E-02       4   13    1        -0.8444986965E-01      0.1537467775E+00
          0                 3           2             4   13     1      -0.6169415973E-03       4   13    1        -0.3635404406E-01      0.5982691901E-01
          0                 4           2             4   13     1      -0.3096691040E-03       4   13    1        -0.1824264473E-01      0.3027005252E-01
          0                 5           2             4   13     1      -0.1558981509E-03       4   13    1        -0.9183501970E-02      0.1520961130E-01
          0                 6           1             4   13     1      -0.7831291166E-04       4   13    1        -0.4612972346E-02      0.7640925559E-02

    ------------------------------------------------
       NWT REQUIRED            6 OUTER ITERATIONS 
       AND A TOTAL OF         11 INNER ITERATIONS.
    ------------------------------------------------

 NO OUTPUT CONTROL FOR STRESS PERIOD   18   TIME STEP    3
 
 SOLVING FOR HEAD 
                                                   Max.-Head-Change                         Max.-Flux-Residual
  Residual-Control   Outer-Iter.   Inner-Iter.     Column Row Layer    Maximum-Head-Change  Column Row Layer    Maximum-Flux-Residual          L2-NORM 
          0                 1           2             4    7     1       0.3647685173E-02       4    7    1         0.1906680415E+00      0.5820128588E+00
          0                 2           2             4   13     1      -0.1459025143E-02       4   13    1        -0.8598720816E-01      0.1557787368E+00
          0                 3           2             4   13     1      -0.6157988403E-03       4   13    1        -0.3626474282E-01      0.6199578265E-01
          0                 4           2             4   13     1      -0.3104069930E-03       4   13    1        -0.1827885568E-01      0.3112100621E-01
          0                 5           2             4   13     1      -0.1561675304E-03       4   13    1        -0.9195398371E-02      0.1565762632E-01
          0                 6           1             4   13     1      -0.7841493408E-04       4   13    1        -0.4616971117E-02      0.7863625345E-02

    ------------------------------------------------
       NWT REQUIRED            6 OUTER ITERATIONS 
       AND A TOTAL OF         11 INNER ITERATIONS.
    ------------------------------------------------

 NO OUTPUT CONTROL FOR STRESS PERIOD   18   TIME STEP    4
 
 SOLVING FOR HEAD 
                                                   Max.-Head-Change                         Max.-Flux-Residual
  Residual-Control   Outer-Iter.   Inner-Iter.     Column Row Layer    Maximum-Head-Change  Column Row Layer    Maximum-Flux-Residual          L2-NORM 
          0                 1           2             4    7     1       0.3625928102E-02       4    7    1         0.1895275736E+00      0.5804860672E+00
          0                 2           2             4   13     1      -0.1482598560E-02       4   13    1        -0.8738129183E-01      0.1576523296E+00
          0                 3           2             4   13     1      -0.6147120941E-03       4   13    1        -0.3620026662E-01      0.6190567900E-01
          0                 4           2             4   13     1      -0.3109810271E-03       4   13    1        -0.1831270193E-01      0.3117502469E-01
          0                 5           2             4   13     1      -0.1558236585E-03       4   13    1        -0.9175133448E-02      0.1562373669E-01
          0                 6           1             4   13     1      -0.7876821715E-04       4   13    1        -0.4637799157E-02      0.7897302895E-02

    ------------------------------------------------
       NWT REQUIRED            6 OUTER ITERATIONS 
       AND A TOTAL OF         11 INNER ITERATIONS.
    ------------------------------------------------

 NO OUTPUT CONTROL FOR STRESS PERIOD   18   TIME STEP    5
 
 SOLVING FOR HEAD 
                                                   Max.-Head-Change                         Max.-Flux-Residual
  Residual-Control   Outer-Iter.   Inner-Iter.     Column Row Layer    Maximum-Head-Change  Column Row Layer    Maximum-Flux-Residual          L2-NORM 
          0                 1           2             4    7     1       0.3604403696E-02       4    7    1         0.1883994880E+00      0.5795643658E+00
          0                 2           2             4   13     1      -0.1502607830E-02       4   13    1        -0.8856442882E-01      0.1592597068E+00
          0                 3           2             4   13     1      -0.6142044480E-03       4   13    1        -0.3617003949E-01      0.6186310423E-01
          0                 4           2             4   13     1      -0.3149126861E-03       4   13    1        -0.1854420695E-01      0.3156934579E-01
          0                 5           2             4   13     1      -0.1571658005E-03       4   13    1        -0.9254134409E-02      0.1575908261E-01
          0                 6           1             4   13     1      -0.7902887509E-04       4   13    1        -0.4653155770E-02      0.7921726610E-02

    ------------------------------------------------
       NWT REQUIRED            6 OUTER ITERATIONS 
       AND A TOTAL OF         11 INNER ITERATIONS.
    ------------------------------------------------

 NO OUTPUT CONTROL FOR STRESS PERIOD   18   TIME STEP    6
 
 SOLVING FOR HEAD 
                                                   Max.-Head-Change                         Max.-Flux-Residual
  Residual-Control   Outer-Iter.   Inner-Iter.     Column Row Layer    Maximum-Head-Change  Column Row Layer    Maximum-Flux-Residual          L2-NORM 
          0                 1           2             4    7     1       0.3583108519E-02       4    7    1         0.1872834659E+00      0.5791013839E+00
          0                 2           2             4   13     1      -0.1523130237E-02       4   13    1        -0.8977691237E-01      0.1609636626E+00
          0                 3           2             4   13     1      -0.6090689513E-03       4   13    1        -0.3586737450E-01      0.6135568483E-01
          0                 4           2             4   13     1      -0.3145830564E-03       4   13    1        -0.1852446419E-01      0.3153501058E-01
          0                 5           2             4   13     1      -0.1571241020E-03       4   13    1        -0.9251559032E-02      0.1575382560E-01
          0                 6           1             4   13     1      -0.7926477981E-04       4   13    1        -0.4666958052E-02      0.7947670659E-02

    ------------------------------------------------
       NWT REQUIRED            6 OUTER ITERATIONS 
       AND A TOTAL OF         11 INNER ITERATIONS.
    ------------------------------------------------

 NO OUTPUT CONTROL FOR STRESS PERIOD   18   TIME STEP    7
 
 SOLVING FOR HEAD 
                                                   Max.-Head-Change                         Max.-Flux-Residual
  Residual-Control   Outer-Iter.   Inner-Iter.     Column Row Layer    Maximum-Head-Change  Column Row Layer    Maximum-Flux-Residual          L2-NORM 
          0                 1           2             4    7     1       0.3561906397E-02       4    7    1         0.1861719646E+00      0.5789781450E+00
          0                 2           2             4   13     1      -0.1540590219E-02       4   13    1        -0.9080826830E-01      0.1624244617E+00
          0                 3           2             4   13     1      -0.6049370896E-03       4   13    1        -0.3562388000E-01      0.6094697845E-01
          0                 4           2             4   13     1      -0.3176137320E-03       4   13    1        -0.1870290877E-01      0.3184084046E-01
          0                 5           2             4   13     1      -0.1582441377E-03       4   13    1        -0.9317521579E-02      0.1586506397E-01
          0                 6           1             4   13     1      -0.7986047888E-04       4   13    1        -0.4702021263E-02      0.8006910935E-02

    ------------------------------------------------
       NWT REQUIRED            6 OUTER ITERATIONS 
       AND A TOTAL OF         11 INNER ITERATIONS.
    ------------------------------------------------

 NO OUTPUT CONTROL FOR STRESS PERIOD   18   TIME STEP    8
 
 SOLVING FOR HEAD 
                                                   Max.-Head-Change                         Max.-Flux-Residual
  Residual-Control   Outer-Iter.   Inner-Iter.     Column Row Layer    Maximum-Head-Change  Column Row Layer    Maximum-Flux-Residual          L2-NORM 
          0                 1           2             4    7     1       0.3540935370E-02       4    7    1         0.1850726526E+00      0.5790951279E+00
          0                 2           2             4   13     1      -0.1556416972E-02       4   13    1        -0.9174280785E-01      0.1637692333E+00
          0                 3           2             4   13     1      -0.6049902901E-03       4   13    1        -0.3562682833E-01      0.6133274935E-01
          0                 4           2             4   13     1      -0.3179619790E-03       4   13    1        -0.1872337532E-01      0.3200167287E-01
          0                 5           2             4   13     1      -0.1583677829E-03       4   13    1        -0.9324860638E-02      0.1594331004E-01
          0                 6           1             4   13     1      -0.7962011036E-04       4   13    1        -0.4687836794E-02      0.8021558516E-02

    ------------------------------------------------
       NWT REQUIRED            6 OUTER ITERATIONS 
       AND A TOTAL OF         11 INNER ITERATIONS.
    ------------------------------------------------

 NO OUTPUT CONTROL FOR STRESS PERIOD   18   TIME STEP    9
 
 SOLVING FOR HEAD 
                                                   Max.-Head-Change                         Max.-Flux-Residual
  Residual-Control   Outer-Iter.   Inner-Iter.     Column Row Layer    Maximum-Head-Change  Column Row Layer    Maximum-Flux-Residual          L2-NORM 
          0                 1           2             4    7     1       0.3520190077E-02       4    7    1         0.1839853227E+00      0.5793845946E+00
          0                 2           2             4   13     1      -0.1562775956E-02       4   13    1        -0.9211938687E-01      0.1642513990E+00
          0                 3           2             4   13     1      -0.6092243426E-03       4   13    1        -0.3587603379E-01      0.6176344071E-01
          0                 4           2             4   13     1      -0.3198881380E-03       4   13    1        -0.1883686022E-01      0.3219350149E-01
          0                 5           2             4   13     1      -0.1593015139E-03       4   13    1        -0.9379752240E-02      0.1604418622E-01
          0                 6           1             4   13     1      -0.8020118388E-04       4   13    1        -0.4722091106E-02      0.8074849332E-02

    ------------------------------------------------
       NWT REQUIRED            6 OUTER ITERATIONS 
       AND A TOTAL OF         11 INNER ITERATIONS.
    ------------------------------------------------

 NO OUTPUT CONTROL FOR STRESS PERIOD   18   TIME STEP   10
 
 SOLVING FOR HEAD 
                                                   Max.-Head-Change                         Max.-Flux-Residual
  Residual-Control   Outer-Iter.   Inner-Iter.     Column Row Layer    Maximum-Head-Change  Column Row Layer    Maximum-Flux-Residual          L2-NORM 
          0                 1           2             4    7     1       0.3499532151E-02       4    7    1         0.1829023323E+00      0.5797732436E+00
          0                 2           2             4   13     1      -0.1577745254E-02       4   13    1        -0.9300227878E-01      0.1655766923E+00
          0                 3           2             4   13     1      -0.6082898429E-03       4   13    1        -0.3582091958E-01      0.6174172474E-01
          0                 4           2             4   13     1      -0.3197783870E-03       4   13    1        -0.1883036855E-01      0.3220660419E-01
          0                 5           2             4   13     1      -0.1591639281E-03       4   13    1        -0.9371652006E-02      0.1604335703E-01
          0                 6           1             4   13     1      -0.8009808207E-04       4   13    1        -0.4716000837E-02      0.8072640648E-02

    ------------------------------------------------
       NWT REQUIRED            6 OUTER ITERATIONS 
       AND A TOTAL OF         11 INNER ITERATIONS.
    ------------------------------------------------

 NO OUTPUT CONTROL FOR STRESS PERIOD   18   TIME STEP   11
 
 SOLVING FOR HEAD 
                                                   Max.-Head-Change                         Max.-Flux-Residual
  Residual-Control   Outer-Iter.   Inner-Iter.     Column Row Layer    Maximum-Head-Change  Column Row Layer    Maximum-Flux-Residual          L2-NORM 
          0                 1           2             4    7     1       0.3479099707E-02       4    7    1         0.1818312364E+00      0.5802243102E+00
          0                 2           2             4   13     1      -0.1591395084E-02       4   13    1        -0.9380709933E-01      0.1667965428E+00
          0                 3           2             4   13     1      -0.6074442184E-03       4   13    1        -0.3577102920E-01      0.6166031880E-01
          0                 4           2             4   13     1      -0.3197008353E-03       4   13    1        -0.1882579645E-01      0.3219885959E-01
          0                 5           2             4   13     1      -0.1590299916E-03       4   13    1        -0.9363755907E-02      0.1602959119E-01
          0                 6           1             4   13     1      -0.7979915843E-04       4   13    1        -0.4698400267E-02      0.8043021652E-02

    ------------------------------------------------
       NWT REQUIRED            6 OUTER ITERATIONS 
       AND A TOTAL OF         11 INNER ITERATIONS.
    ------------------------------------------------

 NO OUTPUT CONTROL FOR STRESS PERIOD   18   TIME STEP   12
 
 SOLVING FOR HEAD 
                                                   Max.-Head-Change                         Max.-Flux-Residual
  Residual-Control   Outer-Iter.   Inner-Iter.     Column Row Layer    Maximum-Head-Change  Column Row Layer    Maximum-Flux-Residual          L2-NORM 
          0                 1           2             4    7     1       0.3458888565E-02       4    7    1         0.1807718314E+00      0.5806975656E+00
          0                 2           2             4   13     1      -0.1603437529E-02       4   13    1        -0.9451690594E-01      0.1678840440E+00
          0                 3           2             4   13     1      -0.6067032462E-03       4   13    1        -0.3572734248E-01      0.6158779047E-01
          0                 4           2             4   13     1      -0.3185505172E-03       4   13    1        -0.1875804363E-01      0.3208393050E-01
          0                 5           2             4   13     1      -0.1595087417E-03       4   13    1        -0.9391929279E-02      0.1607809855E-01
          0                 6           1             4   13     1      -0.7996554497E-04       4   13    1        -0.4708196228E-02      0.8060669303E-02

    ------------------------------------------------
       NWT REQUIRED            6 OUTER ITERATIONS 
       AND A TOTAL OF         11 INNER ITERATIONS.
    ------------------------------------------------

 NO OUTPUT CONTROL FOR STRESS PERIOD   18   TIME STEP   13
 
 SOLVING FOR HEAD 
                                                   Max.-Head-Change                         Max.-Flux-Residual
  Residual-Control   Outer-Iter.   Inner-Iter.     Column Row Layer    Maximum-Head-Change  Column Row Layer    Maximum-Flux-Residual          L2-NORM 
          0                 1           2             4    7     1       0.3438900037E-02       4    7    1         0.1797239009E+00      0.5811733229E+00
          0                 2           2             4   13     1      -0.1614544597E-02       4   13    1        -0.9517122823E-01      0.1689085749E+00
          0                 3           2             4   13     1      -0.6057699004E-03       4   13    1        -0.3567234836E-01      0.6149313682E-01
          0                 4           2             4   13     1      -0.3138032206E-03       4   13    1        -0.1847853330E-01      0.3160755361E-01
          0                 5           2             4   13     1      -0.1578728539E-03       4   13    1        -0.9295624908E-02      0.1591382830E-01
          0                 6           1             4   13     1      -0.7961398860E-04       4   13    1        -0.4687505174E-02      0.8024255180E-02

    ------------------------------------------------
       NWT REQUIRED            6 OUTER ITERATIONS 
       AND A TOTAL OF         11 INNER ITERATIONS.
    ------------------------------------------------

 NO OUTPUT CONTROL FOR STRESS PERIOD   18   TIME STEP   14
 
 SOLVING FOR HEAD 
                                                   Max.-Head-Change                         Max.-Flux-Residual
  Residual-Control   Outer-Iter.   Inner-Iter.     Column Row Layer    Maximum-Head-Change  Column Row Layer    Maximum-Flux-Residual          L2-NORM 
          0                 1           2             4    7     1       0.3418991943E-02       4    7    1         0.1786801479E+00      0.5815936798E+00
          0                 2           2             4   13     1      -0.1624023863E-02       4   13    1        -0.9572953898E-01      0.1697796338E+00
          0                 3           2             4   13     1      -0.6052127134E-03       4   13    1        -0.3563953572E-01      0.6143643036E-01
          0                 4           2             4   13     1      -0.3140860807E-03       4   13    1        -0.1849517167E-01      0.3163727647E-01
          0                 5           2             4   13     1      -0.1579392047E-03       4   13    1        -0.9299516207E-02      0.1592092943E-01
          0                 6           1             4   13     1      -0.7942724535E-04       4   13    1        -0.4676521108E-02      0.8004908410E-02

    ------------------------------------------------
       NWT REQUIRED            6 OUTER ITERATIONS 
       AND A TOTAL OF         11 INNER ITERATIONS.
    ------------------------------------------------

 NO OUTPUT CONTROL FOR STRESS PERIOD   18   TIME STEP   15
 
 SOLVING FOR HEAD 
                                                   Max.-Head-Change                         Max.-Flux-Residual
  Residual-Control   Outer-Iter.   Inner-Iter.     Column Row Layer    Maximum-Head-Change  Column Row Layer    Maximum-Flux-Residual          L2-NORM 
          0                 1           2             4    7     1       0.3399300927E-02       4    7    1         0.1776479301E+00      0.5819703895E+00
          0                 2           2             4   13     1      -0.1629327069E-02       4   13    1        -0.9604169187E-01      0.1702720972E+00
          0                 3           2             4   13     1      -0.6064422326E-03       4   13    1        -0.3571197624E-01      0.6155801146E-01
          0                 4           2             4   13     1      -0.3150132542E-03       4   13    1        -0.1854976084E-01      0.3173059603E-01
          0                 5           2             4   13     1      -0.1583809497E-03       4   13    1        -0.9325525495E-02      0.1596588412E-01
          0                 6           1             4   13     1      -0.7964639784E-04       4   13    1        -0.4689410911E-02      0.8028168322E-02

    ------------------------------------------------
       NWT REQUIRED            6 OUTER ITERATIONS 
       AND A TOTAL OF         11 INNER ITERATIONS.
    ------------------------------------------------

 NO OUTPUT CONTROL FOR STRESS PERIOD   18   TIME STEP   16
 
 SOLVING FOR HEAD 
                                                   Max.-Head-Change                         Max.-Flux-Residual
  Residual-Control   Outer-Iter.   Inner-Iter.     Column Row Layer    Maximum-Head-Change  Column Row Layer    Maximum-Flux-Residual          L2-NORM 
          0                 1           2             4    7     1       0.3379690665E-02       4    7    1         0.1766196026E+00      0.5822942550E+00
          0                 2           2             4   13     1      -0.1641019654E-02       4   13    1        -0.9672980357E-01      0.1713794481E+00
          0                 3           2             4   13     1      -0.6038928209E-03       4   13    1        -0.3556183958E-01      0.6130131089E-01
          0                 4           2             4   13     1      -0.3144734454E-03       4   13    1        -0.1851795698E-01      0.3167626380E-01
          0                 5           2             4   13     1      -0.1580150691E-03       4   13    1        -0.9303970677E-02      0.1592969121E-01
          0                 6           1             4   13     1      -0.7918544733E-04       4   13    1        -0.4662267044E-02      0.7982055971E-02

    ------------------------------------------------
       NWT REQUIRED            6 OUTER ITERATIONS 
       AND A TOTAL OF         11 INNER ITERATIONS.
    ------------------------------------------------

 NO OUTPUT CONTROL FOR STRESS PERIOD   18   TIME STEP   17
 
 SOLVING FOR HEAD 
                                                   Max.-Head-Change                         Max.-Flux-Residual
  Residual-Control   Outer-Iter.   Inner-Iter.     Column Row Layer    Maximum-Head-Change  Column Row Layer    Maximum-Flux-Residual          L2-NORM 
          0                 1           2             4    7     1       0.3360431628E-02       4    7    1         0.1756101921E+00      0.5825492514E+00
          0                 2           2             4   13     1      -0.1647612268E-02       4   13    1        -0.9711749110E-01      0.1720100152E+00
          0                 3           2             4   13     1      -0.6037202331E-03       4   13    1        -0.3555167408E-01      0.6128485496E-01
          0                 4           2             4   13     1      -0.3145033574E-03       4   13    1        -0.1851970448E-01      0.3168086838E-01
          0                 5           2             4   13     1      -0.1580442079E-03       4   13    1        -0.9305696862E-02      0.1593182921E-01
          0                 6           1             4   13     1      -0.7919821334E-04       4   13    1        -0.4663013345E-02      0.7983605998E-02

    ------------------------------------------------
       NWT REQUIRED            6 OUTER ITERATIONS 
       AND A TOTAL OF         11 INNER ITERATIONS.
    ------------------------------------------------

 NO OUTPUT CONTROL FOR STRESS PERIOD   18   TIME STEP   18
 
 SOLVING FOR HEAD 
                                                   Max.-Head-Change                         Max.-Flux-Residual
  Residual-Control   Outer-Iter.   Inner-Iter.     Column Row Layer    Maximum-Head-Change  Column Row Layer    Maximum-Flux-Residual          L2-NORM 
          0                 1           2             4    7     1       0.3341245865E-02       4    7    1         0.1746042623E+00      0.5827466696E+00
          0                 2           2             4   13     1      -0.1654249682E-02       4   13    1        -0.9750769453E-01      0.1726494626E+00
          0                 3           2             4   13     1      -0.6033305357E-03       4   13    1        -0.3552882504E-01      0.6123842055E-01
          0                 4           2             4   13     1      -0.3142596886E-03       4   13    1        -0.1850531934E-01      0.3165848559E-01
          0                 5           2             4   13     1      -0.1573936895E-03       4   13    1        -0.9267381134E-02      0.1586766285E-01
          0                 6           1             4   13     1      -0.7941955333E-04       4   13    1        -0.4676051248E-02      0.8005490354E-02

    ------------------------------------------------
       NWT REQUIRED            6 OUTER ITERATIONS 
       AND A TOTAL OF         11 INNER ITERATIONS.
    ------------------------------------------------

 NO OUTPUT CONTROL FOR STRESS PERIOD   18   TIME STEP   19
 
 SOLVING FOR HEAD 
                                                   Max.-Head-Change                         Max.-Flux-Residual
  Residual-Control   Outer-Iter.   Inner-Iter.     Column Row Layer    Maximum-Head-Change  Column Row Layer    Maximum-Flux-Residual          L2-NORM 
          0                 1           2             4    7     1       0.3322270388E-02       4    7    1         0.1736094968E+00      0.5828663009E+00
          0                 2           2             4   13     1      -0.1660291614E-02       4   13    1        -0.9786269875E-01      0.1732370126E+00
          0                 3           2             4   13     1      -0.6029334923E-03       4   13    1        -0.3550550683E-01      0.6119519341E-01
          0                 4           2             4   13     1      -0.3141498650E-03       4   13    1        -0.1849883769E-01      0.3164788243E-01
          0                 5           2             4   13     1      -0.1575906342E-03       4   13    1        -0.9279123758E-02      0.1587207902E-01
          0                 6           1             4   13     1      -0.7911054203E-04       4   13    1        -0.4657689182E-02      0.7992006244E-02

    ------------------------------------------------
       NWT REQUIRED            6 OUTER ITERATIONS 
       AND A TOTAL OF         11 INNER ITERATIONS.
    ------------------------------------------------

 NO OUTPUT CONTROL FOR STRESS PERIOD   18   TIME STEP   20
 
 SOLVING FOR HEAD 
                                                   Max.-Head-Change                         Max.-Flux-Residual
  Residual-Control   Outer-Iter.   Inner-Iter.     Column Row Layer    Maximum-Head-Change  Column Row Layer    Maximum-Flux-Residual          L2-NORM 
          0                 1           2             4    7     1       0.3303367580E-02       4    7    1         0.1726182692E+00      0.5829110111E+00
          0                 2           2             4   13     1      -0.1665878696E-02       4   13    1        -0.9819083515E-01      0.1737863503E+00
          0                 3           2             4   13     1      -0.6025481598E-03       4   13    1        -0.3548287025E-01      0.6115320116E-01
          0                 4           2             4   13     1      -0.3140952561E-03       4   13    1        -0.1849560492E-01      0.3164332419E-01
          0                 5           2             4   13     1      -0.1572852584E-03       4   13    1        -0.9260983582E-02      0.1585828671E-01
          0                 6           1             4   13     1      -0.7935634840E-04       4   13    1        -0.4672330799E-02      0.7998783460E-02

    ------------------------------------------------
       NWT REQUIRED            6 OUTER ITERATIONS 
       AND A TOTAL OF         11 INNER ITERATIONS.
    ------------------------------------------------

 NO OUTPUT CONTROL FOR STRESS PERIOD   18   TIME STEP   21
 
 SOLVING FOR HEAD 
                                                   Max.-Head-Change                         Max.-Flux-Residual
  Residual-Control   Outer-Iter.   Inner-Iter.     Column Row Layer    Maximum-Head-Change  Column Row Layer    Maximum-Flux-Residual          L2-NORM 
          0                 1           2             4    7     1       0.3284676711E-02       4    7    1         0.1716381745E+00      0.5828924590E+00
          0                 2           2             4   13     1      -0.1670986939E-02       4   13    1        -0.9849069105E-01      0.1742919441E+00
          0                 3           2             4   13     1      -0.6022112759E-03       4   13    1        -0.3546311004E-01      0.6111466586E-01
          0                 4           2             4   13     1      -0.3140205734E-03       4   13    1        -0.1849118422E-01      0.3163718809E-01
          0                 5           2             4   13     1      -0.1572480989E-03       4   13    1        -0.9258792641E-02      0.1585511151E-01
          0                 6           1             4   13     1      -0.7931909642E-04       4   13    1        -0.4670122138E-02      0.7996058872E-02

    ------------------------------------------------
       NWT REQUIRED            6 OUTER ITERATIONS 
       AND A TOTAL OF         11 INNER ITERATIONS.
    ------------------------------------------------

 NO OUTPUT CONTROL FOR STRESS PERIOD   18   TIME STEP   22
 
 SOLVING FOR HEAD 
                                                   Max.-Head-Change                         Max.-Flux-Residual
  Residual-Control   Outer-Iter.   Inner-Iter.     Column Row Layer    Maximum-Head-Change  Column Row Layer    Maximum-Flux-Residual          L2-NORM 
          0                 1           2             4    7     1       0.3266191748E-02       4    7    1         0.1706690688E+00      0.5827892537E+00
          0                 2           2             4   13     1      -0.1675721873E-02       4   13    1        -0.9876852624E-01      0.1747615078E+00
          0                 3           2             4   13     1      -0.6018671802E-03       4   13    1        -0.3544291718E-01      0.6107657382E-01
          0                 4           2             4   13     1      -0.3139262802E-03       4   13    1        -0.1848560939E-01      0.3162936266E-01
          0                 5           2             4   13     1      -0.1571959305E-03       4   13    1        -0.9255716056E-02      0.1585006090E-01
          0                 6           1             4   13     1      -0.7907626948E-04       4   13    1        -0.4655830285E-02      0.7971440992E-02

    ------------------------------------------------
       NWT REQUIRED            6 OUTER ITERATIONS 
       AND A TOTAL OF         11 INNER ITERATIONS.
    ------------------------------------------------

 NO OUTPUT CONTROL FOR STRESS PERIOD   18   TIME STEP   23
 
 SOLVING FOR HEAD 
                                                   Max.-Head-Change                         Max.-Flux-Residual
  Residual-Control   Outer-Iter.   Inner-Iter.     Column Row Layer    Maximum-Head-Change  Column Row Layer    Maximum-Flux-Residual          L2-NORM 
          0                 1           2             4    7     1       0.3247909057E-02       4    7    1         0.1697106390E+00      0.5826317486E+00
          0                 2           2             4   13     1      -0.1680077525E-02       4   13    1        -0.9902396902E-01      0.1751985519E+00
          0                 3           2             4   13     1      -0.6015432744E-03       4   13    1        -0.3542392158E-01      0.6103904147E-01
          0                 4           2             4   13     1      -0.3138350712E-03       4   13    1        -0.1847972999E-01      0.3164565029E-01
          0                 5           2             4   13     1      -0.1571419334E-03       4   13    1        -0.9253055832E-02      0.1582084577E-01
          0                 6           1             4   13     1      -0.7904628009E-04       4   13    1        -0.4654029014E-02      0.7969206272E-02

    ------------------------------------------------
       NWT REQUIRED            6 OUTER ITERATIONS 
       AND A TOTAL OF         11 INNER ITERATIONS.
    ------------------------------------------------

 NO OUTPUT CONTROL FOR STRESS PERIOD   18   TIME STEP   24
 
 SOLVING FOR HEAD 
                                                   Max.-Head-Change                         Max.-Flux-Residual
  Residual-Control   Outer-Iter.   Inner-Iter.     Column Row Layer    Maximum-Head-Change  Column Row Layer    Maximum-Flux-Residual          L2-NORM 
          0                 1           2             4    7     1       0.3229691709E-02       4    7    1         0.1687553316E+00      0.5823986589E+00
          0                 2           2             4   13     1      -0.1684075310E-02       4   13    1        -0.9925827541E-01      0.1756025312E+00
          0                 3           2             4   13     1      -0.6012531140E-03       4   13    1        -0.3540691531E-01      0.6100541441E-01
          0                 4           2             4   13     1      -0.3137292467E-03       4   13    1        -0.1847396832E-01      0.3161224840E-01
          0                 5           2             4   13     1      -0.1571048262E-03       4   13    1        -0.9250351548E-02      0.1584092226E-01
          0                 6           1             4   13     1      -0.7900781636E-04       4   13    1        -0.4651785045E-02      0.7966321337E-02

    ------------------------------------------------
       NWT REQUIRED            6 OUTER ITERATIONS 
       AND A TOTAL OF         11 INNER ITERATIONS.
    ------------------------------------------------

 NO OUTPUT CONTROL FOR STRESS PERIOD   18   TIME STEP   25
 
 SOLVING FOR HEAD 
                                                   Max.-Head-Change                         Max.-Flux-Residual
  Residual-Control   Outer-Iter.   Inner-Iter.     Column Row Layer    Maximum-Head-Change  Column Row Layer    Maximum-Flux-Residual          L2-NORM 
          0                 1           2             4    7     1       0.3211676042E-02       4    7    1         0.1678107774E+00      0.5821024931E+00
          0                 2           2             4   13     1      -0.1683213388E-02       4   13    1        -0.9920651188E-01      0.1755376471E+00
          0                 3           2             4   13     1      -0.6033963674E-03       4   13    1        -0.3553322122E-01      0.6121679492E-01
          0                 4           2             4   13     1      -0.3145863806E-03       4   13    1        -0.1852443466E-01      0.3169958017E-01
          0                 5           2             4   13     1      -0.1575669698E-03       4   13    1        -0.9277560682E-02      0.1588814635E-01
          0                 6           1             4   13     1      -0.7917213498E-04       4   13    1        -0.4661405475E-02      0.7988839518E-02

    ------------------------------------------------
       NWT REQUIRED            6 OUTER ITERATIONS 
       AND A TOTAL OF         11 INNER ITERATIONS.
    ------------------------------------------------

 NO OUTPUT CONTROL FOR STRESS PERIOD   18   TIME STEP   26
 
 SOLVING FOR HEAD 
                                                   Max.-Head-Change                         Max.-Flux-Residual
  Residual-Control   Outer-Iter.   Inner-Iter.     Column Row Layer    Maximum-Head-Change  Column Row Layer    Maximum-Flux-Residual          L2-NORM 
          0                 1           2             4    7     1       0.3193859760E-02       4    7    1         0.1668766803E+00      0.5817485247E+00
          0                 2           2             4   13     1      -0.1686196954E-02       4   13    1        -0.9938106954E-01      0.1758433544E+00
          0                 3           2             4   13     1      -0.6033453552E-03       4   13    1        -0.3553031335E-01      0.6120782912E-01
          0                 4           2             4   13     1      -0.3146087339E-03       4   13    1        -0.1852573230E-01      0.3170283681E-01
          0                 5           2             4   13     1      -0.1575698363E-03       4   13    1        -0.9277720499E-02      0.1588877527E-01
          0                 6           1             4   13     1      -0.7925220807E-04       4   13    1        -0.4666344315E-02      0.7983101398E-02

    ------------------------------------------------
       NWT REQUIRED            6 OUTER ITERATIONS 
       AND A TOTAL OF         11 INNER ITERATIONS.
    ------------------------------------------------

 NO OUTPUT CONTROL FOR STRESS PERIOD   18   TIME STEP   27
 
 SOLVING FOR HEAD 
                                                   Max.-Head-Change                         Max.-Flux-Residual
  Residual-Control   Outer-Iter.   Inner-Iter.     Column Row Layer    Maximum-Head-Change  Column Row Layer    Maximum-Flux-Residual          L2-NORM 
          0                 1           2             4    7     1       0.3176236782E-02       4    7    1         0.1659529211E+00      0.5813361412E+00
          0                 2           2             4   13     1      -0.1688916312E-02       4   13    1        -0.9954007839E-01      0.1761231846E+00
          0                 3           2             4   13     1      -0.6033387981E-03       4   13    1        -0.3552998903E-01      0.6120136155E-01
          0                 4           2             4   13     1      -0.3146148009E-03       4   13    1        -0.1852607248E-01      0.3170600679E-01
          0                 5           2             4   13     1      -0.1575713392E-03       4   13    1        -0.9277831774E-02      0.1588890186E-01
          0                 6           1             4   13     1      -0.7925806087E-04       4   13    1        -0.4666503266E-02      0.7991409016E-02

    ------------------------------------------------
       NWT REQUIRED            6 OUTER ITERATIONS 
       AND A TOTAL OF         11 INNER ITERATIONS.
    ------------------------------------------------

 NO OUTPUT CONTROL FOR STRESS PERIOD   18   TIME STEP   28
 
 SOLVING FOR HEAD 
                                                   Max.-Head-Change                         Max.-Flux-Residual
  Residual-Control   Outer-Iter.   Inner-Iter.     Column Row Layer    Maximum-Head-Change  Column Row Layer    Maximum-Flux-Residual          L2-NORM 
          0                 1           2             4    7     1       0.3158670932E-02       4    7    1         0.1650318190E+00      0.5808688743E+00
          0                 2           2             4   13     1      -0.1691455056E-02       4   13    1        -0.9968844399E-01      0.1763827062E+00
          0                 3           2             4   13     1      -0.6033271106E-03       4   13    1        -0.3552941577E-01      0.6119625359E-01
          0                 4           2             4   13     1      -0.3146100817E-03       4   13    1        -0.1852576795E-01      0.3170607227E-01
          0                 5           2             4   13     1      -0.1575818066E-03       4   13    1        -0.9278428480E-02      0.1589001320E-01
          0                 6           1             4   13     1      -0.7904551261E-04       4   13    1        -0.4654004953E-02      0.7969331421E-02

    ------------------------------------------------
       NWT REQUIRED            6 OUTER ITERATIONS 
       AND A TOTAL OF         11 INNER ITERATIONS.
    ------------------------------------------------

 NO OUTPUT CONTROL FOR STRESS PERIOD   18   TIME STEP   29
 
 SOLVING FOR HEAD 
                                                   Max.-Head-Change                         Max.-Flux-Residual
  Residual-Control   Outer-Iter.   Inner-Iter.     Column Row Layer    Maximum-Head-Change  Column Row Layer    Maximum-Flux-Residual          L2-NORM 
          0                 1           2             4    7     1       0.3141301590E-02       4    7    1         0.1641210445E+00      0.5803534781E+00
          0                 2           2             4   13     1      -0.1693731829E-02       4   13    1        -0.9982135993E-01      0.1766191480E+00
          0                 3           2             4   13     1      -0.6033365478E-03       4   13    1        -0.3552493401E-01      0.6122346037E-01
          0                 4           2             4   13     1      -0.3146171323E-03       4   13    1        -0.1852447863E-01      0.3171831653E-01
          0                 5           2             4   13     1      -0.1570469151E-03       4   13    1        -0.9245978908E-02      0.1584278813E-01
          0                 6           1             4   13     1      -0.7928876981E-04       4   13    1        -0.4667863725E-02      0.7996844430E-02

    ------------------------------------------------
       NWT REQUIRED            6 OUTER ITERATIONS 
       AND A TOTAL OF         11 INNER ITERATIONS.
    ------------------------------------------------

 NO OUTPUT CONTROL FOR STRESS PERIOD   18   TIME STEP   30



 STREAM LISTING     PERIOD     18   STEP       30

 LAYER ROW COL. STREAM  RCH.  FLOW INTO     FLOW TO   FLOW OUT OF   OVRLND.     DIRECT     STREAM       STREAM     STREAM     STREAM   STREAMBED  STREAMBED
                SEG.NO.  NO.  STRM. RCH.    AQUIFER    STRM. RCH.    RUNOFF     PRECIP       ET          HEAD       DEPTH      WIDTH   CONDCTNC.   GRADIENT

   1    1    1     1     1    2.3625E+01  2.3872E-01   2.3387E+01  0.000E+00  0.000E+00  0.000E+00  1.09421E+03  1.157E+00  1.276E+01  5.742E-02  1.386E+00
   1    2    2     1     2    2.3387E+01  3.6909E-01   2.3018E+01  0.000E+00  0.000E+00  0.000E+00  1.08921E+03  1.153E+00  1.270E+01  8.888E-02  1.384E+00
   1    3    3     1     3    2.3018E+01  3.1418E-01   2.2703E+01  0.000E+00  0.000E+00  0.000E+00  1.08357E+03  1.147E+00  1.263E+01  7.575E-02  1.382E+00
   1    3    4     1     4    2.2703E+01  2.8882E-01   2.2415E+01  0.000E+00  0.000E+00  0.000E+00  1.07855E+03  1.143E+00  1.256E+01  6.972E-02  1.381E+00
   1    4    5     2     1    2.0415E+01  3.1702E-01   2.0098E+01  0.000E+00  0.000E+00  0.000E+00  1.07300E+03  1.064E+00  1.200E+01  7.800E-02  1.355E+00
   1    5    6     2     2    2.0098E+01  2.4333E-01   1.9854E+01  0.000E+00  0.000E+00  0.000E+00  1.06756E+03  1.055E+00  1.200E+01  6.000E-02  1.352E+00
   1    6    6     2     3    1.9854E+01  2.4286E-01   1.9611E+01  0.000E+00  0.000E+00  0.000E+00  1.06284E+03  1.048E+00  1.200E+01  6.000E-02  1.349E+00
   1    7    6     2     4    1.9611E+01  2.4240E-01   1.9369E+01  0.000E+00  0.000E+00  0.000E+00  1.05812E+03  1.040E+00  1.200E+01  6.000E-02  1.347E+00
   1    8    6     2     5    1.9369E+01  2.4193E-01   1.9127E+01  0.000E+00  0.000E+00  0.000E+00  1.05339E+03  1.032E+00  1.200E+01  6.000E-02  1.344E+00
   1    3    5     3     1    2.0000E+00  2.8252E-01   1.7175E+00  0.000E+00  0.000E+00  0.000E+00  1.07555E+03  1.909E+00  9.636E+00  7.227E-02  1.955E+00
   1    3    6     3     2    1.7175E+00  2.4905E-01   1.4684E+00  0.000E+00  0.000E+00  0.000E+00  1.07264E+03  1.727E+00  8.909E+00  6.682E-02  1.864E+00
   1    3    7     3     3    1.4684E+00  1.9718E-01   1.2712E+00  0.000E+00  0.000E+00  0.000E+00  1.06987E+03  1.555E+00  8.218E+00  5.547E-02  1.777E+00
   1    4    8     3     4    1.2712E+00  2.2567E-01   1.0456E+00  0.000E+00  0.000E+00  0.000E+00  1.06682E+03  1.364E+00  7.455E+00  6.709E-02  1.682E+00
   1    5    8     3     5    1.0456E+00  1.5790E-01   8.8768E-01  0.000E+00  0.000E+00  0.000E+00  1.06362E+03  1.164E+00  6.655E+00  4.991E-02  1.582E+00
   1    6    8     3     6    8.8768E-01  5.5980E-02   8.3170E-01  0.000E+00  0.000E+00  0.000E+00  1.06158E+03  1.036E+00  6.145E+00  1.844E-02  1.518E+00
   1    5   10     4     1    1.0000E+01  9.0919E-02   9.9091E+00  0.000E+00  0.000E+00  0.000E+00  1.07836E+03  6.368E-01  1.000E+01  2.500E-02  1.212E+00
   1    5    9     4     2    9.9091E+00  1.8158E-01   9.7275E+00  0.000E+00  0.000E+00  0.000E+00  1.07154E+03  6.315E-01  1.000E+01  5.000E-02  1.211E+00
   1    6    8     4     3    9.7275E+00  1.2689E-01   9.6006E+00  0.000E+00  0.000E+00  0.000E+00  1.06381E+03  6.256E-01  1.000E+01  3.500E-02  1.209E+00
   1    6    8     5     1    1.0432E+01  2.2686E-01   1.0205E+01  0.000E+00  0.000E+00  0.000E+00  1.05868E+03  6.790E-01  1.542E+01  6.166E-02  1.226E+00
   1    7    7     5     2    1.0205E+01  2.7894E-01   9.9265E+00  0.000E+00  0.000E+00  0.000E+00  1.05417E+03  6.732E-01  1.519E+01  7.594E-02  1.224E+00
   1    8    7     5     3    9.9265E+00  1.9221E-01   9.7343E+00  0.000E+00  0.000E+00  0.000E+00  1.04992E+03  6.676E-01  1.497E+01  5.241E-02  1.223E+00
   1    8    6     5     4    9.7343E+00  1.3577E-01   9.5985E+00  0.000E+00  0.000E+00  0.000E+00  1.04691E+03  6.637E-01  1.482E+01  3.706E-02  1.221E+00
   1    9    6     6     1    2.1515E+01  2.4694E-01   2.1268E+01  0.000E+00  0.000E+00  0.000E+00  1.04384E+03  1.116E+00  1.200E+01  6.000E-02  1.372E+00
   1   10    7     6     2    2.1268E+01  2.4648E-01   2.1021E+01  0.000E+00  0.000E+00  0.000E+00  1.03929E+03  1.108E+00  1.200E+01  6.000E-02  1.369E+00
   1   11    7     6     3    2.1021E+01  2.4601E-01   2.0775E+01  0.000E+00  0.000E+00  0.000E+00  1.03474E+03  1.100E+00  1.200E+01  6.000E-02  1.367E+00
   1   12    7     6     4    2.0775E+01  2.4555E-01   2.0530E+01  0.000E+00  0.000E+00  0.000E+00  1.03018E+03  1.092E+00  1.200E+01  6.000E-02  1.364E+00
   1   13    7     6     5    2.0530E+01  4.3806E-03   2.0525E+01  0.000E+00  0.000E+00  0.000E+00  1.02700E+03  1.089E+00  1.200E+01  2.400E-02  6.084E-02
   1   14    9     7     1    1.5000E+02  1.3712E+00   1.4863E+02  0.000E+00  0.000E+00  0.000E+00  1.03987E+03  2.288E+00  5.529E+01  5.593E-01  8.172E-01
   1   13    8     7     2    1.4863E+02  1.9267E+00   1.4670E+02  0.000E+00  0.000E+00  0.000E+00  1.03478E+03  2.279E+00  5.525E+01  6.148E-01  1.045E+00
   1   13    7     7     3    1.4670E+02  1.6047E+00   1.4510E+02  0.000E+00  0.000E+00  0.000E+00  1.02969E+03  2.269E+00  5.521E+01  5.584E-01  9.579E-01
   1   13    6     8     1    1.6562E+02  1.0214E+00   1.6460E+02  0.000E+00  0.000E+00  0.000E+00  1.02480E+03  2.921E+00  4.235E+01  4.316E-01  7.888E-01
   1   13    5     8     2    1.6460E+02  2.6354E-01   1.6434E+02  0.000E+00  0.000E+00  0.000E+00  1.01854E+03  2.917E+00  4.229E+01  4.310E-01  2.038E-01
   1   13    4     8     3    1.6434E+02 -2.1532E+00   1.6649E+02  0.000E+00  0.000E+00  0.000E+00  1.01230E+03  2.923E+00  4.238E+01  4.319E+00 -1.662E-01
   1   13    3     8     4    1.6649E+02 -3.5110E+00   1.7000E+02  0.000E+00  0.000E+00  0.000E+00  1.00607E+03  2.942E+00  4.265E+01  4.346E+00 -2.693E-01
   1   13    2     8     5    1.7000E+02 -2.5537E+00   1.7256E+02  0.000E+00  0.000E+00  0.000E+00  9.99836E+02  2.961E+00  4.294E+01  4.376E+00 -1.945E-01
   1   13    1     8     6    1.7256E+02 -1.9923E+00   1.7455E+02  0.000E+00  0.000E+00  0.000E+00  9.94851E+02  2.976E+00  4.315E+01  2.638E+00 -2.517E-01
   1    8    6     9     1    7.2109E+00  0.0000E+00   7.2109E+00  0.000E+00  0.000E+00  0.000E+00  1.08059E+03  1.844E+00  4.000E+00  0.000E+00  1.615E+00
   1    8    5     9     2    7.2109E+00  0.0000E+00   7.2109E+00  0.000E+00  0.000E+00  0.000E+00  1.08009E+03  1.844E+00  4.000E+00  0.000E+00  1.615E+00





UNSATURATED ZONE PACKAGE VOLUMETRIC BUDGET FOR  TIME STEP    30 STRESS PERIOD   18
  ------------------------------------------------------------------------------



     CUMULATIVE VOLUMES      L**3       RATES FOR THIS TIME STEP      L**3/T
     ------------------                 ------------------------

           IN:                                      IN:
           ---                                      ---
        INFILTRATION =   624100116.1809          INFILTRATION =          11.6186

          OUT:                                     OUT:
          ----                                     ----
              UZF ET =   566079250.7842                UZF ET =          11.5520
        UZF RECHARGE =      175481.8973          UZF RECHARGE =       0.0000E+00

            IN - OUT =    57845383.4995              IN - OUT =       6.6629E-02

          STORAGE:                                 STORAGE:
          --------                                 --------
      STORAGE CHANGE =    57845376.1265        STORAGE CHANGE =       6.6629E-02

 PERCENT DISCREPANCY IS DIFFERENCE BETWEEN IN-OUT MINUS CHANGE IN STORAGE
 DIVIDED BY THE AVERAGE OF IN AND OUT TIMES 100

 PERCENT DISCREPANCY =           0.00     PERCENT DISCREPANCY =           0.00






1
  VOLUMETRIC BUDGET FOR AGRICULTURAL FIELDS AT  END OF TIME STEP   30, STRESS PERIOD  18
  ------------------------------------------------------------------------------

     CUMULATIVE VOLUMES      L**3       RATES FOR THIS TIME STEP      L**3/T
     ------------------                 ------------------------

           IN:                                      IN:
           ---                                      ---
               AG WELLS  =   174751168.0000                 AG WELLS  =           0.0000
      DIVERSION SEGMENTS =   252211280.0000        DIVERSION SEGMENTS =           7.2109
           GW IRRIGATION =           0.0000             GW IRRIGATION =           0.0000
           SW IRRIGATION =           0.0000             SW IRRIGATION =           0.0000
        SYSTEM LOSSES GW =           0.0000          SYSTEM LOSSES GW =           0.0000
        SYSTEM LOSSES SW =           0.0000          SYSTEM LOSSES SW =           0.0000

                TOTAL IN =   426962432.0000                  TOTAL IN =           7.2109

          OUT:                                     OUT:
          ----                                     ----
               AG WELLS  =           0.0000                 AG WELLS  =           0.0000
      DIVERSION SEGMENTS =           0.0000        DIVERSION SEGMENTS =           0.0000
           GW IRRIGATION =   174751168.0000             GW IRRIGATION =           0.0000
           SW IRRIGATION =   252216288.0000             SW IRRIGATION =           7.2111
        SYSTEM LOSSES GW =           0.0000          SYSTEM LOSSES GW =           0.0000
        SYSTEM LOSSES SW =           0.0000          SYSTEM LOSSES SW =           0.0000

               TOTAL OUT =   426967456.0000                 TOTAL OUT =           7.2111

                IN - OUT =       -5024.0000                  IN - OUT =      -1.4400E-04

     PERCENT DISCREPANCY =          -0.00         PERCENT DISCREPANCY =          -0.00



1
  VOLUMETRIC BUDGET FOR ENTIRE MODEL AT END OF TIME STEP   30, STRESS PERIOD  18
  ------------------------------------------------------------------------------

     CUMULATIVE VOLUMES      L**3       RATES FOR THIS TIME STEP      L**3/T
     ------------------                 ------------------------

           IN:                                      IN:
           ---                                      ---
             STORAGE     =   275040256.0000               STORAGE     =           0.9831
       CONSTANT HEAD     =           0.0000         CONSTANT HEAD     =           0.0000
     HEAD DEP BOUNDS     =    12900773.0000       HEAD DEP BOUNDS     =           0.2882
      STREAM LEAKAGE     =   527032416.0000        STREAM LEAKAGE     =          12.0767
        UZF RECHARGE     =      175481.8594          UZF RECHARGE     =           0.0000
               GW ET     =           0.0000                 GW ET     =           0.0000
     SURFACE LEAKAGE     =           0.0000       SURFACE LEAKAGE     =           0.0000
           AG WELLS      =           0.0000             AG WELLS      =           0.0000

                TOTAL IN =   815148928.0000                  TOTAL IN =          13.3480

          OUT:                                     OUT:
          ----                                     ----
             STORAGE     =   167504624.0000               STORAGE     =           2.8475
       CONSTANT HEAD     =           0.0000         CONSTANT HEAD     =           0.0000
     HEAD DEP BOUNDS     =    12910710.0000       HEAD DEP BOUNDS     =           0.2890
      STREAM LEAKAGE     =   459961728.0000        STREAM LEAKAGE     =          10.2102
        UZF RECHARGE     =           0.0000          UZF RECHARGE     =           0.0000
               GW ET     =           0.0000                 GW ET     =           0.0000
     SURFACE LEAKAGE     =           0.0000       SURFACE LEAKAGE     =           0.0000
           AG WELLS      =   174751168.0000             AG WELLS      =           0.0000

               TOTAL OUT =   815128256.0000                 TOTAL OUT =          13.3466

                IN - OUT =       20672.0000                  IN - OUT =       1.3313E-03

     PERCENT DISCREPANCY =           0.00         PERCENT DISCREPANCY =           0.01






         TIME SUMMARY AT END OF TIME STEP   30 IN STRESS PERIOD   18
                    SECONDS     MINUTES      HOURS       DAYS        YEARS
                    -----------------------------------------------------------
   TIME STEP LENGTH  87667.      1461.1      24.352      1.0147     2.77799E-03
 STRESS PERIOD TIME 2.63000E+06  43833.      730.56      30.440     8.33397E-02
         TOTAL TIME 4.47965E+07 7.46608E+05  12443.      518.48      1.4195    
1
1
                            STRESS PERIOD NO.   19, LENGTH =   2630000.    
                            -----------------------------------------------

                              NUMBER OF TIME STEPS =    30

                               MULTIPLIER FOR DELT =     1.000

                            INITIAL TIME STEP SIZE =   87666.66    

 REUSING NON-PARAMETER GHB CELLS FROM LAST STRESS PERIOD

      2 GHB CELLS

 REUSING STREAM SEGMENT DATA FROM LAST STRESS PERIOD



            AREAL INFILTRATION RATE
 READING ON UNIT   19 WITH FORMAT: (10F4.0)            

            1           2           3           4           5           6           7           8           9          10
 ........................................................................................................................
   1   1.2000E-09   0.000       0.000       0.000       0.000       0.000       0.000       0.000       0.000       0.000    
   2   2.1000E-09  2.0000E-09  8.0000E-10  8.5000E-09   0.000       0.000       0.000       0.000       0.000       0.000    
   3   5.0000E-10  1.1000E-09  8.8000E-09  5.5000E-09   0.000       0.000       0.000       0.000       0.000       0.000    
   4   8.5000E-09  1.1000E-09  1.1000E-09  1.1000E-09  2.0000E-09   0.000       0.000       0.000       0.000       0.000    
   5   8.5000E-09  1.1000E-09  1.1000E-09  1.1000E-09  1.1000E-09   0.000       0.000       0.000       0.000       0.000    
   6   8.5000E-09  5.2000E-09  2.1000E-09  1.1000E-09  1.5000E-09   0.000       0.000       0.000       0.000       0.000    
   7   8.5000E-09  5.2000E-09  2.1000E-09  1.2000E-09  2.0000E-09   0.000       0.000       0.000       0.000       0.000    
   8   5.0000E-10  5.2000E-09  2.1000E-09  1.2000E-09  5.0000E-09   0.000       0.000       0.000       0.000       0.000    
   9   5.0000E-10  5.2000E-09  2.1000E-09  1.2000E-09  5.0000E-09   0.000       0.000       0.000       0.000       0.000    
  10   5.0000E-10  5.2000E-09  2.1000E-09  1.2000E-09  5.8000E-09   0.000       0.000       0.000       0.000       0.000    
  11   1.0000E-10  1.1000E-09  1.1000E-09  1.2000E-09  5.0000E-09   0.000       0.000       0.000       0.000       0.000    
  12   1.1000E-09  1.1000E-09  1.1000E-09  1.1000E-09  2.0000E-09   0.000       0.000       0.000       0.000       0.000    
  13   1.1000E-09  2.2000E-09  2.2000E-09  2.1000E-09  1.0000E-09   0.000       0.000       0.000       0.000       0.000    
  14   2.0000E-10  5.5000E-09  5.5000E-09  5.2000E-09  1.0000E-09   0.000       0.000       0.000       0.000       0.000    
  15    0.000      8.8000E-09  8.8000E-09   0.000       0.000       0.000       0.000       0.000       0.000       0.000    

                  ET RATE =  1.500000E-07

 USING ET EXTINCTION DEPTH FROM PREVIOUS STRESS PERIOD. CURRENT PERIOD IS:      19

 USING EXTINCTION WATER CONTENT FROM PREVIOUS STRESS PERIOD. CURRENT PERIOD IS:      19

 USING AIR ENTRY PRESSURE FROM PREVIOUS STRESS PERIOD. CURRENT PERIOD IS:      19

 USING ROOT PRESSURE HEAD FROM PREVIOUS STRESS PERIOD. CURRENT PERIOD IS:      19

 USING ROOT ACTIVITY FROM PREVIOUS STRESS PERIOD. CURRENT PERIOD IS:      19

 PROCESSING AG STRESS PERIOD DATA

 READING AG STRESS PERIOD DATA

 READING IRRIGATION SEGMENT

 READING IRRIGATION WELL

 READING SUPPLEMENTAL WELL

 END PROCESSING AG STRESS PERIOD DATA OPTIONS
 
 SOLVING FOR HEAD 
                                                   Max.-Head-Change                         Max.-Flux-Residual
  Residual-Control   Outer-Iter.   Inner-Iter.     Column Row Layer    Maximum-Head-Change  Column Row Layer    Maximum-Flux-Residual          L2-NORM 
          0                 1           2             4    7     1       0.3124108593E-02       4    7    1         0.1632204587E+00      0.5475894601E+00
          0                 2           2             4   13     1      -0.5108679777E-02       4   13    1        -0.3004941558E+00      0.5143779825E+00
          0                 3           2             4    7     1      -0.1792164341E-02       5    8    1        -0.9650063599E-01      0.2664673769E+00
          0                 4           2             4    7     1      -0.8074907676E-03       4    7    1        -0.4336555995E-01      0.1098635721E+00
          0                 5           2             4    7     1      -0.3559919948E-03       5    8    1        -0.1911928117E-01      0.4687136242E-01
          0                 6           2             4    7     1      -0.3065871375E-03       4    6    1        -0.1646463106E-01      0.4032996406E-01
          0                 7           2             4    7     1      -0.2449506502E-03       5    8    1        -0.1315448327E-01      0.3222173365E-01
          0                 8           2             4    7     1      -0.1969566932E-03       4    6    1        -0.1057697959E-01      0.2590817783E-01
          0                 9           2             4    7     1      -0.1582778670E-03       5    8    1        -0.8499767785E-02      0.2082007372E-01
          0                10           2             4    7     1      -0.1272041313E-03       5    8    1        -0.6830995891E-02      0.1673243811E-01
                                                   Max.-Head-Change                         Max.-Flux-Residual
  Residual-Control   Outer-Iter.   Inner-Iter.     Column Row Layer    Maximum-Head-Change  Column Row Layer    Maximum-Flux-Residual          L2-NORM 
          0                11           1             4    7     1      -0.1022339275E-03       5    8    1        -0.5490018263E-02      0.1344773034E-01
          0                12           1             4    7     1      -0.8235889388E-04       5    6    1        -0.4422686389E-02      0.1083329079E-01

    ------------------------------------------------
       NWT REQUIRED           12 OUTER ITERATIONS 
       AND A TOTAL OF         22 INNER ITERATIONS.
    ------------------------------------------------

 OUTPUT CONTROL FOR STRESS PERIOD   19   TIME STEP    1
    PRINT BUDGET
    SAVE BUDGET
 UBDSV1 SAVING "         STORAGE" ON UNIT 102 AT TIME STEP  1, STRESS PERIOD  19
 UBDSV2 SAVING "   CONSTANT HEAD" ON UNIT 102 AT TIME STEP  1, STRESS PERIOD  19
 UBDSV1 SAVING "FLOW RIGHT FACE " ON UNIT 102 AT TIME STEP  1, STRESS PERIOD  19
 UBDSV1 SAVING "FLOW FRONT FACE " ON UNIT 102 AT TIME STEP  1, STRESS PERIOD  19

  HEAD DEP BOUNDS   PERIOD   19   STEP     1
 BOUNDARY      1   LAYER   1   ROW    13   COL     1   RATE   -0.288923    
 BOUNDARY      2   LAYER   1   ROW    14   COL     9   RATE    0.288169    



 STREAM LISTING     PERIOD     19   STEP        1

 LAYER ROW COL. STREAM  RCH.  FLOW INTO     FLOW TO   FLOW OUT OF   OVRLND.     DIRECT     STREAM       STREAM     STREAM     STREAM   STREAMBED  STREAMBED
                SEG.NO.  NO.  STRM. RCH.    AQUIFER    STRM. RCH.    RUNOFF     PRECIP       ET          HEAD       DEPTH      WIDTH   CONDCTNC.   GRADIENT

   1    1    1     1     1    2.1826E+01  2.3002E-01   2.1596E+01  0.000E+00  0.000E+00  0.000E+00  1.09418E+03  1.129E+00  1.238E+01  5.571E-02  1.376E+00
   1    2    2     1     2    2.1596E+01  3.5556E-01   2.1240E+01  0.000E+00  0.000E+00  0.000E+00  1.08918E+03  1.124E+00  1.232E+01  8.622E-02  1.375E+00
   1    3    3     1     3    2.1240E+01  3.0257E-01   2.0938E+01  0.000E+00  0.000E+00  0.000E+00  1.08354E+03  1.119E+00  1.224E+01  7.347E-02  1.373E+00
   1    3    4     1     4    2.0938E+01  2.7808E-01   2.0660E+01  0.000E+00  0.000E+00  0.000E+00  1.07852E+03  1.114E+00  1.218E+01  6.760E-02  1.371E+00
   1    4    5     2     1    1.8660E+01  3.1263E-01   1.8347E+01  0.000E+00  0.000E+00  0.000E+00  1.07294E+03  1.008E+00  1.200E+01  7.800E-02  1.336E+00
   1    5    6     2     2    1.8347E+01  2.3994E-01   1.8107E+01  0.000E+00  0.000E+00  0.000E+00  1.06751E+03  9.990E-01  1.200E+01  6.000E-02  1.333E+00
   1    6    6     2     3    1.8107E+01  2.3947E-01   1.7868E+01  0.000E+00  0.000E+00  0.000E+00  1.06278E+03  9.911E-01  1.200E+01  6.000E-02  1.330E+00
   1    7    6     2     4    1.7868E+01  2.3899E-01   1.7629E+01  0.000E+00  0.000E+00  0.000E+00  1.05806E+03  9.832E-01  1.200E+01  6.000E-02  1.328E+00
   1    8    6     2     5    1.7629E+01  2.3851E-01   1.7390E+01  0.000E+00  0.000E+00  0.000E+00  1.05333E+03  9.752E-01  1.200E+01  6.000E-02  1.325E+00
   1    3    5     3     1    2.0000E+00  2.8252E-01   1.7175E+00  0.000E+00  0.000E+00  0.000E+00  1.07555E+03  1.909E+00  9.636E+00  7.227E-02  1.955E+00
   1    3    6     3     2    1.7175E+00  2.4905E-01   1.4684E+00  0.000E+00  0.000E+00  0.000E+00  1.07264E+03  1.727E+00  8.909E+00  6.682E-02  1.864E+00
   1    3    7     3     3    1.4684E+00  1.9718E-01   1.2712E+00  0.000E+00  0.000E+00  0.000E+00  1.06987E+03  1.555E+00  8.218E+00  5.547E-02  1.777E+00
   1    4    8     3     4    1.2712E+00  2.2567E-01   1.0456E+00  0.000E+00  0.000E+00  0.000E+00  1.06682E+03  1.364E+00  7.455E+00  6.709E-02  1.682E+00
   1    5    8     3     5    1.0456E+00  1.5790E-01   8.8768E-01  0.000E+00  0.000E+00  0.000E+00  1.06362E+03  1.164E+00  6.655E+00  4.991E-02  1.582E+00
   1    6    8     3     6    8.8768E-01  5.5980E-02   8.3170E-01  0.000E+00  0.000E+00  0.000E+00  1.06158E+03  1.036E+00  6.145E+00  1.844E-02  1.518E+00
   1    5   10     4     1    1.0000E+01  9.0919E-02   9.9091E+00  0.000E+00  0.000E+00  0.000E+00  1.07836E+03  6.368E-01  1.000E+01  2.500E-02  1.212E+00
   1    5    9     4     2    9.9091E+00  1.8158E-01   9.7275E+00  0.000E+00  0.000E+00  0.000E+00  1.07154E+03  6.315E-01  1.000E+01  5.000E-02  1.211E+00
   1    6    8     4     3    9.7275E+00  1.2689E-01   9.6006E+00  0.000E+00  0.000E+00  0.000E+00  1.06381E+03  6.256E-01  1.000E+01  3.500E-02  1.209E+00
   1    6    8     5     1    1.0432E+01  2.2686E-01   1.0205E+01  0.000E+00  0.000E+00  0.000E+00  1.05868E+03  6.790E-01  1.542E+01  6.166E-02  1.226E+00
   1    7    7     5     2    1.0205E+01  2.7894E-01   9.9265E+00  0.000E+00  0.000E+00  0.000E+00  1.05417E+03  6.732E-01  1.519E+01  7.594E-02  1.224E+00
   1    8    7     5     3    9.9265E+00  1.9221E-01   9.7343E+00  0.000E+00  0.000E+00  0.000E+00  1.04992E+03  6.676E-01  1.497E+01  5.241E-02  1.223E+00
   1    8    6     5     4    9.7343E+00  1.3577E-01   9.5985E+00  0.000E+00  0.000E+00  0.000E+00  1.04691E+03  6.637E-01  1.482E+01  3.706E-02  1.221E+00
   1    9    6     6     1    9.5985E+00  2.2097E-01   9.3776E+00  0.000E+00  0.000E+00  0.000E+00  1.04341E+03  6.828E-01  1.200E+01  6.000E-02  1.228E+00
   1   10    7     6     2    9.3776E+00  2.2039E-01   9.1572E+00  0.000E+00  0.000E+00  0.000E+00  1.03885E+03  6.732E-01  1.200E+01  6.000E-02  1.224E+00
   1   11    7     6     3    9.1572E+00  2.1981E-01   8.9374E+00  0.000E+00  0.000E+00  0.000E+00  1.03430E+03  6.636E-01  1.200E+01  6.000E-02  1.221E+00
   1   12    7     6     4    8.9374E+00  2.1923E-01   8.7181E+00  0.000E+00  0.000E+00  0.000E+00  1.02974E+03  6.539E-01  1.200E+01  6.000E-02  1.218E+00
   1   13    7     6     5    8.7181E+00 -6.1043E-02   8.7792E+00  0.000E+00  0.000E+00  0.000E+00  1.02656E+03  6.503E-01  1.200E+01  2.400E-01 -8.478E-02
   1   14    9     7     1    1.5000E+02  1.3712E+00   1.4863E+02  0.000E+00  0.000E+00  0.000E+00  1.03987E+03  2.288E+00  5.529E+01  5.593E-01  8.172E-01
   1   13    8     7     2    1.4863E+02  1.9268E+00   1.4670E+02  0.000E+00  0.000E+00  0.000E+00  1.03478E+03  2.279E+00  5.525E+01  6.148E-01  1.045E+00
   1   13    7     7     3    1.4670E+02  1.6054E+00   1.4510E+02  0.000E+00  0.000E+00  0.000E+00  1.02969E+03  2.269E+00  5.521E+01  5.584E-01  9.583E-01
   1   13    6     8     1    1.5388E+02  9.6022E-01   1.5292E+02  0.000E+00  0.000E+00  0.000E+00  1.02472E+03  2.841E+00  4.119E+01  4.197E-01  7.626E-01
   1   13    5     8     2    1.5292E+02  2.2322E-01   1.5269E+02  0.000E+00  0.000E+00  0.000E+00  1.01846E+03  2.836E+00  4.113E+01  4.191E-01  1.775E-01
   1   13    4     8     3    1.5269E+02 -2.4070E+00   1.5510E+02  0.000E+00  0.000E+00  0.000E+00  1.01222E+03  2.844E+00  4.124E+01  4.202E+00 -1.909E-01
   1   13    3     8     4    1.5510E+02 -3.7261E+00   1.5883E+02  0.000E+00  0.000E+00  0.000E+00  1.00599E+03  2.865E+00  4.155E+01  4.234E+00 -2.934E-01
   1   13    2     8     5    1.5883E+02 -2.7866E+00   1.6161E+02  0.000E+00  0.000E+00  0.000E+00  9.99762E+02  2.887E+00  4.187E+01  4.266E+00 -2.177E-01
   1   13    1     8     6    1.6161E+02 -2.1224E+00   1.6373E+02  0.000E+00  0.000E+00  0.000E+00  9.94779E+02  2.904E+00  4.211E+01  2.574E+00 -2.748E-01
   1    8    6     9     1    1.7390E+01  0.0000E+00   1.7390E+01  0.000E+00  0.000E+00  0.000E+00  1.08191E+03  3.158E+00  4.000E+00  0.000E+00  2.053E+00
   1    8    5     9     2    1.7390E+01  0.0000E+00   1.7390E+01  0.000E+00  0.000E+00  0.000E+00  1.08141E+03  3.158E+00  4.000E+00  0.000E+00  2.053E+00



 UBDSV3 SAVING "           GW ET" ON UNIT  61 AT TIME STEP  1, STRESS PERIOD  19
 UBDSV3 SAVING "    UZF RECHARGE" ON UNIT  61 AT TIME STEP  1, STRESS PERIOD  19
 UBDSV3 SAVING " SURFACE LEAKAGE" ON UNIT  61 AT TIME STEP  1, STRESS PERIOD  19
 UBDSV3 SAVING "       HORT+DUNN" ON UNIT  61 AT TIME STEP  1, STRESS PERIOD  19
 UBDSV3 SAVING "  STORAGE CHANGE" ON UNIT  61 AT TIME STEP  1, STRESS PERIOD  19


UNSATURATED ZONE PACKAGE VOLUMETRIC BUDGET FOR  TIME STEP     1 STRESS PERIOD   19
  ------------------------------------------------------------------------------



     CUMULATIVE VOLUMES      L**3       RATES FOR THIS TIME STEP      L**3/T
     ------------------                 ------------------------

           IN:                                      IN:
           ---                                      ---
        INFILTRATION =   626137677.9377          INFILTRATION =          23.2422

          OUT:                                     OUT:
          ----                                     ----
              UZF ET =   568409801.8848                UZF ET =          26.5842
        UZF RECHARGE =      175481.8973          UZF RECHARGE =       0.0000E+00

            IN - OUT =    57552394.1557              IN - OUT =          -3.3421

          STORAGE:                                 STORAGE:
          --------                                 --------
      STORAGE CHANGE =    57552386.7878        STORAGE CHANGE =          -3.3421

 PERCENT DISCREPANCY IS DIFFERENCE BETWEEN IN-OUT MINUS CHANGE IN STORAGE
 DIVIDED BY THE AVERAGE OF IN AND OUT TIMES 100

 PERCENT DISCREPANCY =           0.00     PERCENT DISCREPANCY =           0.00






 

            AG WELLS      PERIOD   19   STEP   1
 AG WELL      1   LAYER   1   ROW     6   COL     4   RATE   -0.240701    
 AG WELL      2   LAYER   1   ROW     6   COL     5   RATE   -0.240701    
 AG WELL      3   LAYER   1   ROW     7   COL     4   RATE   -0.240701    
 AG WELL      4   LAYER   1   ROW     7   COL     5   RATE   -0.240701    
 AG WELL      5   LAYER   1   ROW     8   COL     4   RATE   -0.240701    
 AG WELL      6   LAYER   1   ROW     8   COL     5   RATE   -0.240701    
 
 

   DIVERSION SEGMENTS     PERIOD   19   STEP   1
 SEGMENT      9   RATE     17.3901    
 
 

        SW IRRIGATION     PERIOD   19   STEP   1
 SEGMENT      9   ROW     6   COL     4   RATE     2.89841    
 SEGMENT      9   ROW     6   COL     5   RATE     2.89841    
 SEGMENT      9   ROW     7   COL     4   RATE     2.89841    
 SEGMENT      9   ROW     7   COL     5   RATE     2.89841    
 SEGMENT      9   ROW     8   COL     4   RATE     2.89841    
 SEGMENT      9   ROW     8   COL     5   RATE     2.89841    
 
 

        GW IRRIGATION     PERIOD   19   STEP   1
 AG WELL      1   ROW     6   COL     4   RATE    0.240701    
 AG WELL      2   ROW     6   COL     5   RATE    0.240701    
 AG WELL      3   ROW     7   COL     4   RATE    0.240701    
 AG WELL      4   ROW     7   COL     5   RATE    0.240701    
 AG WELL      5   ROW     8   COL     4   RATE    0.240701    
 AG WELL      6   ROW     8   COL     5   RATE    0.240701    
 
1
  VOLUMETRIC BUDGET FOR AGRICULTURAL FIELDS AT  END OF TIME STEP    1, STRESS PERIOD  19
  ------------------------------------------------------------------------------

     CUMULATIVE VOLUMES      L**3       RATES FOR THIS TIME STEP      L**3/T
     ------------------                 ------------------------

           IN:                                      IN:
           ---                                      ---
               AG WELLS  =   174877776.0000                 AG WELLS  =           1.4442
      DIVERSION SEGMENTS =   253735808.0000        DIVERSION SEGMENTS =          17.3901
           GW IRRIGATION =           0.0000             GW IRRIGATION =           0.0000
           SW IRRIGATION =           0.0000             SW IRRIGATION =           0.0000
        SYSTEM LOSSES GW =           0.0000          SYSTEM LOSSES GW =           0.0000
        SYSTEM LOSSES SW =           0.0000          SYSTEM LOSSES SW =           0.0000

                TOTAL IN =   428613568.0000                  TOTAL IN =          18.8343

          OUT:                                     OUT:
          ----                                     ----
               AG WELLS  =           0.0000                 AG WELLS  =           0.0000
      DIVERSION SEGMENTS =           0.0000        DIVERSION SEGMENTS =           0.0000
           GW IRRIGATION =   174877776.0000             GW IRRIGATION =           1.4442
           SW IRRIGATION =   253740848.0000             SW IRRIGATION =          17.3904
        SYSTEM LOSSES GW =           0.0000          SYSTEM LOSSES GW =           0.0000
        SYSTEM LOSSES SW =           0.0000          SYSTEM LOSSES SW =           0.0000

               TOTAL OUT =   428618624.0000                 TOTAL OUT =          18.8347

                IN - OUT =       -5056.0000                  IN - OUT =      -3.4714E-04

     PERCENT DISCREPANCY =          -0.00         PERCENT DISCREPANCY =          -0.00



1
  VOLUMETRIC BUDGET FOR ENTIRE MODEL AT END OF TIME STEP    1, STRESS PERIOD  19
  ------------------------------------------------------------------------------

     CUMULATIVE VOLUMES      L**3       RATES FOR THIS TIME STEP      L**3/T
     ------------------                 ------------------------

           IN:                                      IN:
           ---                                      ---
             STORAGE     =   275269792.0000               STORAGE     =           2.6182
       CONSTANT HEAD     =           0.0000         CONSTANT HEAD     =           0.0000
     HEAD DEP BOUNDS     =    12926036.0000       HEAD DEP BOUNDS     =           0.2882
      STREAM LEAKAGE     =   528067264.0000        STREAM LEAKAGE     =          11.8045
        UZF RECHARGE     =      175481.8594          UZF RECHARGE     =           0.0000
               GW ET     =           0.0000                 GW ET     =           0.0000
     SURFACE LEAKAGE     =           0.0000       SURFACE LEAKAGE     =           0.0000
           AG WELLS      =           0.0000             AG WELLS      =           0.0000

                TOTAL IN =   816438592.0000                  TOTAL IN =          14.7109

          OUT:                                     OUT:
          ----                                     ----
             STORAGE     =   167668816.0000               STORAGE     =           1.8729
       CONSTANT HEAD     =           0.0000         CONSTANT HEAD     =           0.0000
     HEAD DEP BOUNDS     =    12936039.0000       HEAD DEP BOUNDS     =           0.2889
      STREAM LEAKAGE     =   460935104.0000        STREAM LEAKAGE     =          11.1030
        UZF RECHARGE     =           0.0000          UZF RECHARGE     =           0.0000
               GW ET     =           0.0000                 GW ET     =           0.0000
     SURFACE LEAKAGE     =           0.0000       SURFACE LEAKAGE     =           0.0000
           AG WELLS      =   174877776.0000             AG WELLS      =           1.4442

               TOTAL OUT =   816417728.0000                 TOTAL OUT =          14.7090

                IN - OUT =       20864.0000                  IN - OUT =       1.8625E-03

     PERCENT DISCREPANCY =           0.00         PERCENT DISCREPANCY =           0.01






         TIME SUMMARY AT END OF TIME STEP    1 IN STRESS PERIOD   19
                    SECONDS     MINUTES      HOURS       DAYS        YEARS
                    -----------------------------------------------------------
   TIME STEP LENGTH  87667.      1461.1      24.352      1.0147     2.77799E-03
 STRESS PERIOD TIME  87667.      1461.1      24.352      1.0147     2.77799E-03
         TOTAL TIME 4.48841E+07 7.48069E+05  12468.      519.49      1.4223    
1
 
 SOLVING FOR HEAD 
                                                   Max.-Head-Change                         Max.-Flux-Residual
  Residual-Control   Outer-Iter.   Inner-Iter.     Column Row Layer    Maximum-Head-Change  Column Row Layer    Maximum-Flux-Residual          L2-NORM 
          0                 1           2             4    7     1       0.3133967355E-02       4    7    1         0.1636250923E+00      0.5636402159E+00
          0                 2           2             4   13     1      -0.5916812582E-02       4   13    1        -0.3479214160E+00      0.7573919808E+00
          0                 3           2             4    7     1      -0.6321802568E-02       5    8    1        -0.3397226169E+00      0.8357279457E+00
          0                 4           2             4    7     1      -0.1635946008E-02       4    7    1        -0.8785688218E-01      0.2152534308E+00
          0                 5           2             4    7     1      -0.9047908034E-03       5    8    1        -0.4859151880E-01      0.1190235083E+00
          0                 6           2             4    7     1      -0.4365261542E-03       4    7    1        -0.2344278256E-01      0.5742291293E-01
          0                 7           2             4    7     1      -0.3073100474E-03       5    8    1        -0.1650333545E-01      0.4042497368E-01
          0                 8           2             4    7     1      -0.2602310568E-03       4    7    1        -0.1397493803E-01      0.3423146698E-01
          0                 9           2             4    7     1      -0.2167290424E-03       4    8    1        -0.1163868247E-01      0.2850914966E-01
          0                10           2             4    7     1      -0.1807482165E-03       4    8    1        -0.9706366032E-02      0.2377599123E-01
                                                   Max.-Head-Change                         Max.-Flux-Residual
  Residual-Control   Outer-Iter.   Inner-Iter.     Column Row Layer    Maximum-Head-Change  Column Row Layer    Maximum-Flux-Residual          L2-NORM 
          0                11           2             4    7     1      -0.1507225198E-03       4    8    1        -0.8093879386E-02      0.1982587662E-01
          0                12           2             4    7     1      -0.1256850189E-03       4    8    1        -0.6749289174E-02      0.1653231453E-01
          0                13           1             4    7     1      -0.1048021773E-03       5    8    1        -0.5627827280E-02      0.1378596236E-01
          0                14           1             4    7     1      -0.8739427454E-04       4    8    1        -0.4692997345E-02      0.1149607389E-01

    ------------------------------------------------
       NWT REQUIRED           14 OUTER ITERATIONS 
       AND A TOTAL OF         26 INNER ITERATIONS.
    ------------------------------------------------

 NO OUTPUT CONTROL FOR STRESS PERIOD   19   TIME STEP    2
 
 SOLVING FOR HEAD 
                                                   Max.-Head-Change                         Max.-Flux-Residual
  Residual-Control   Outer-Iter.   Inner-Iter.     Column Row Layer    Maximum-Head-Change  Column Row Layer    Maximum-Flux-Residual          L2-NORM 
          0                 1           2             4    7     1       0.3208494580E-02       4    7    1         0.1671649168E+00      0.5871750192E+00
          0                 2           2             4   13     1      -0.5972575375E-02       4   13    1        -0.3512108235E+00      0.7788583793E+00
          0                 3           2             4    7     1      -0.6417239459E-02       5    8    1        -0.3447200724E+00      0.8479671471E+00
          0                 4           2             4    7     1      -0.1666758912E-02       4    7    1        -0.8951145392E-01      0.2193163559E+00
          0                 5           2             4    7     1      -0.9255471792E-03       5    8    1        -0.4970556497E-01      0.1217530066E+00
          0                 6           2             4    7     1      -0.4485457551E-03       4    7    1        -0.2408826197E-01      0.5900391412E-01
          0                 7           2             4    7     1      -0.2537789461E-03       5    8    1        -0.1362857124E-01      0.3338304294E-01
          0                 8           2             4    7     1      -0.2199807124E-03       4    8    1        -0.1181340821E-01      0.2893682203E-01
          0                 9           2             4    7     1      -0.1827994838E-03       4    8    1        -0.9816609465E-02      0.2404568410E-01
          0                10           2             4    7     1      -0.1524327176E-03       4    8    1        -0.8185791474E-02      0.2005101213E-01
                                                   Max.-Head-Change                         Max.-Flux-Residual
  Residual-Control   Outer-Iter.   Inner-Iter.     Column Row Layer    Maximum-Head-Change  Column Row Layer    Maximum-Flux-Residual          L2-NORM 
          0                11           2             4    7     1      -0.1270694260E-03       5    8    1        -0.6823693192E-02      0.1671456651E-01
          0                12           1             4    7     1      -0.1059363199E-03       4    8    1        -0.5688781363E-02      0.1393461165E-01
          0                13           1             4    7     1      -0.8830949679E-04       4    8    1        -0.4742186601E-02      0.1161591271E-01

    ------------------------------------------------
       NWT REQUIRED           13 OUTER ITERATIONS 
       AND A TOTAL OF         24 INNER ITERATIONS.
    ------------------------------------------------

 NO OUTPUT CONTROL FOR STRESS PERIOD   19   TIME STEP    3
 
 SOLVING FOR HEAD 
                                                   Max.-Head-Change                         Max.-Flux-Residual
  Residual-Control   Outer-Iter.   Inner-Iter.     Column Row Layer    Maximum-Head-Change  Column Row Layer    Maximum-Flux-Residual          L2-NORM 
          0                 1           2             4    6     1       0.3431382025E-02       4    6    1         0.1801822329E+00      0.6140293864E+00
          0                 2           2             4   13     1      -0.6023631725E-02       4   13    1        -0.3542215398E+00      0.7944114957E+00
          0                 3           2             4    7     1      -0.6519381785E-02       5    7    1        -0.3501488908E+00      0.8611054974E+00
          0                 4           2             4    7     1      -0.1697610735E-02       4    6    1        -0.9117259569E-01      0.2233836327E+00
          0                 5           2             4    7     1      -0.9456726622E-03       5    7    1        -0.5078607817E-01      0.1243995818E+00
          0                 6           2             4    7     1      -0.4606572778E-03       4    6    1        -0.2473869908E-01      0.6059715792E-01
          0                 7           2             4    7     1      -0.2285061971E-03       5    7    1        -0.1227135467E-01      0.3005855489E-01
          0                 8           2             4    7     1      -0.1663098186E-03       5    8    1        -0.8931169599E-02      0.2187680817E-01
          0                 9           2             4    7     1      -0.1403813384E-03       4    8    1        -0.7538687913E-02      0.1846593857E-01
          0                10           2             4    7     1      -0.1169380090E-03       4    8    1        -0.6279687290E-02      0.1538202954E-01
          0                11           1             4    7     1      -0.9751949069E-04       4    8    1        -0.5236844558E-02      0.1282759697E-01

    ------------------------------------------------
       NWT REQUIRED           11 OUTER ITERATIONS 
       AND A TOTAL OF         21 INNER ITERATIONS.
    ------------------------------------------------

 NO OUTPUT CONTROL FOR STRESS PERIOD   19   TIME STEP    4
 
 SOLVING FOR HEAD 
                                                   Max.-Head-Change                         Max.-Flux-Residual
  Residual-Control   Outer-Iter.   Inner-Iter.     Column Row Layer    Maximum-Head-Change  Column Row Layer    Maximum-Flux-Residual          L2-NORM 
          0                 1           2             5    6     1       0.3724404174E-02       5    6    1         0.1978973342E+00      0.6428000496E+00
          0                 2           2             4   13     1      -0.6070799830E-02       4   13    1        -0.3570018403E+00      0.8182046512E+00
          0                 3           2             4    7     1      -0.6623363229E-02       4    7    1        -0.3557119529E+00      0.8745035086E+00
          0                 4           2             4    7     1      -0.1750584596E-02       5    6    1        -0.9402393704E-01      0.2303592924E+00
          0                 5           2             4    7     1      -0.9570415862E-03       4    7    1        -0.5139650599E-01      0.1258943309E+00
          0                 6           2             4    7     1      -0.4697404796E-03       5    6    1        -0.2522651579E-01      0.6179203468E-01
          0                 7           2             4    7     1      -0.2339668121E-03       4    7    1        -0.1256459806E-01      0.3077684901E-01
          0                 8           2             4    7     1      -0.1162919576E-03       5    8    1        -0.6245108325E-02      0.1529732846E-01
          0                 9           1             4    7     1      -0.9438521946E-04       4    7    1        -0.5068625442E-02      0.1241554601E-01

    ------------------------------------------------
       NWT REQUIRED            9 OUTER ITERATIONS 
       AND A TOTAL OF         17 INNER ITERATIONS.
    ------------------------------------------------

 NO OUTPUT CONTROL FOR STRESS PERIOD   19   TIME STEP    5
 
 SOLVING FOR HEAD 
                                                   Max.-Head-Change                         Max.-Flux-Residual
  Residual-Control   Outer-Iter.   Inner-Iter.     Column Row Layer    Maximum-Head-Change  Column Row Layer    Maximum-Flux-Residual          L2-NORM 
          0                 1           2             5    6     1       0.4058612366E-02       5    6    1         0.2162321284E+00      0.6728091771E+00
          0                 2           2             4   13     1      -0.6113987856E-02       4   13    1        -0.3595466405E+00      0.8352275506E+00
          0                 3           2             4    7     1      -0.5563926499E-02       4    7    1        -0.2988172334E+00      0.7355584825E+00
          0                 4           2             4    7     1      -0.2669054884E-02       5    6    1        -0.1433560768E+00      0.3511695307E+00
          0                 5           2             4    7     1      -0.1095858994E-02       4    7    1        -0.5885147150E-01      0.1441544700E+00
          0                 6           2             4    7     1      -0.5637688641E-03       5    6    1        -0.3027614134E-01      0.7416100804E-01
          0                 7           2             4    7     1      -0.2803380190E-03       4    7    1        -0.1505484100E-01      0.3687667017E-01
          0                 8           2             4    7     1      -0.1400601341E-03       5    8    1        -0.7521503602E-02      0.1842384546E-01
          0                 9           1             4    7     1      -0.6992438286E-04       4    7    1        -0.3755040978E-02      0.9197934426E-02

    ------------------------------------------------
       NWT REQUIRED            9 OUTER ITERATIONS 
       AND A TOTAL OF         17 INNER ITERATIONS.
    ------------------------------------------------

 NO OUTPUT CONTROL FOR STRESS PERIOD   19   TIME STEP    6
 
 SOLVING FOR HEAD 
                                                   Max.-Head-Change                         Max.-Flux-Residual
  Residual-Control   Outer-Iter.   Inner-Iter.     Column Row Layer    Maximum-Head-Change  Column Row Layer    Maximum-Flux-Residual          L2-NORM 
          0                 1           2             5    6     1       0.4383768183E-02       5    6    1         0.2340578820E+00      0.7037552866E+00
          0                 2           2             4   13     1      -0.6153031922E-02       4   13    1        -0.3618466095E+00      0.8465688242E+00
          0                 3           2             4    7     1      -0.5583360385E-02       4    7    1        -0.2998626073E+00      0.7378948568E+00
          0                 4           2             4    7     1      -0.2679705491E-02       5    6    1        -0.1439342568E+00      0.3525786549E+00
          0                 5           2             4    7     1      -0.1108391303E-02       4    7    1        -0.5952448480E-01      0.1458023427E+00
          0                 6           2             4    7     1      -0.5706518646E-03       5    6    1        -0.3064579724E-01      0.7506644591E-01
          0                 7           2             4    7     1      -0.2842956814E-03       4    7    1        -0.1526737107E-01      0.3739725714E-01
          0                 8           2             4    7     1      -0.1422747233E-03       5    8    1        -0.7640428442E-02      0.1871515046E-01
          0                 9           1             4    7     1      -0.7116146829E-04       4    6    1        -0.3825130217E-02      0.9361991511E-02

    ------------------------------------------------
       NWT REQUIRED            9 OUTER ITERATIONS 
       AND A TOTAL OF         17 INNER ITERATIONS.
    ------------------------------------------------

 NO OUTPUT CONTROL FOR STRESS PERIOD   19   TIME STEP    7
 
 SOLVING FOR HEAD 
                                                   Max.-Head-Change                         Max.-Flux-Residual
  Residual-Control   Outer-Iter.   Inner-Iter.     Column Row Layer    Maximum-Head-Change  Column Row Layer    Maximum-Flux-Residual          L2-NORM 
          0                 1           2             5    6     1       0.4696022852E-02       5    6    1         0.2511636019E+00      0.7349721456E+00
          0                 2           2             4   13     1      -0.6188599446E-02       4   13    1        -0.3639410916E+00      0.8522673656E+00
          0                 3           2             4    7     1      -0.6724444818E-02       4    7    1        -0.3611421295E+00      0.8871772283E+00
          0                 4           2             4    7     1      -0.1809001509E-02       5    6    1        -0.9717904373E-01      0.2380625905E+00
          0                 5           2             4    7     1      -0.9873340921E-03       4    7    1        -0.5302287700E-01      0.1298762093E+00
          0                 6           2             4    7     1      -0.4880693371E-03       5    6    1        -0.2621069171E-01      0.6420266627E-01
          0                 7           2             4    7     1      -0.2445259611E-03       4    7    1        -0.1313153529E-01      0.3216554661E-01
          0                 8           2             4    7     1      -0.1222773736E-03       5    8    1        -0.6566479777E-02      0.1608452400E-01
          0                 9           1             4    7     1      -0.6116041659E-04       4    8    1        -0.3284375696E-02      0.8045044521E-02

    ------------------------------------------------
       NWT REQUIRED            9 OUTER ITERATIONS 
       AND A TOTAL OF         17 INNER ITERATIONS.
    ------------------------------------------------

 NO OUTPUT CONTROL FOR STRESS PERIOD   19   TIME STEP    8
 
 SOLVING FOR HEAD 
                                                   Max.-Head-Change                         Max.-Flux-Residual
  Residual-Control   Outer-Iter.   Inner-Iter.     Column Row Layer    Maximum-Head-Change  Column Row Layer    Maximum-Flux-Residual          L2-NORM 
          0                 1           2             5    6     1       0.4992481030E-02       5    6    1         0.2673986694E+00      0.7658279004E+00
          0                 2           2             4   13     1      -0.6221367796E-02       4   13    1        -0.3658700099E+00      0.8536163574E+00
          0                 3           2             4    7     1      -0.6738341842E-02       4    7    1        -0.3618903822E+00      0.8888158361E+00
          0                 4           2             4    7     1      -0.1810550053E-02       5    6    1        -0.9726739337E-01      0.2382740095E+00
          0                 5           2             4    7     1      -0.9974382559E-03       4    7    1        -0.5356548928E-01      0.1312046867E+00
          0                 6           2             4    7     1      -0.4924286793E-03       5    6    1        -0.2644481410E-01      0.6477612721E-01
          0                 7           2             4    7     1      -0.2467358114E-03       4    7    1        -0.1325020330E-01      0.3245621958E-01
          0                 8           2             4    7     1      -0.1233724055E-03       5    8    1        -0.6625282028E-02      0.1622855946E-01
          0                 9           1             4    7     1      -0.6170529059E-04       4    7    1        -0.3313634609E-02      0.8116713928E-02

    ------------------------------------------------
       NWT REQUIRED            9 OUTER ITERATIONS 
       AND A TOTAL OF         17 INNER ITERATIONS.
    ------------------------------------------------

 NO OUTPUT CONTROL FOR STRESS PERIOD   19   TIME STEP    9
 
 SOLVING FOR HEAD 
                                                   Max.-Head-Change                         Max.-Flux-Residual
  Residual-Control   Outer-Iter.   Inner-Iter.     Column Row Layer    Maximum-Head-Change  Column Row Layer    Maximum-Flux-Residual          L2-NORM 
          0                 1           2             5    6     1       0.5274335939E-02       5    6    1         0.2828229619E+00      0.7961706504E+00
          0                 2           2             4   13     1      -0.6246223767E-02       4   13    1        -0.3673336788E+00      0.8513488569E+00
          0                 3           2             4    7     1      -0.6778466661E-02       4    7    1        -0.3640464429E+00      0.8939574521E+00
          0                 4           2             4    7     1      -0.1817775194E-02       5    6    1        -0.9766015361E-01      0.2392307514E+00
          0                 5           2             4    7     1      -0.1009416909E-02       4    7    1        -0.5420876293E-01      0.1327798697E+00
          0                 6           2             4    7     1      -0.4977766507E-03       5    6    1        -0.2673202586E-01      0.6547962632E-01
          0                 7           2             4    7     1      -0.2494269390E-03       4    7    1        -0.1339471669E-01      0.3281020115E-01
          0                 8           2             4    7     1      -0.1246989973E-03       5    8    1        -0.6696519329E-02      0.1640305436E-01
          0                 9           1             4    7     1      -0.6236491487E-04       4    7    1        -0.3349055698E-02      0.8203477455E-02

    ------------------------------------------------
       NWT REQUIRED            9 OUTER ITERATIONS 
       AND A TOTAL OF         17 INNER ITERATIONS.
    ------------------------------------------------

 NO OUTPUT CONTROL FOR STRESS PERIOD   19   TIME STEP   10
 
 SOLVING FOR HEAD 
                                                   Max.-Head-Change                         Max.-Flux-Residual
  Residual-Control   Outer-Iter.   Inner-Iter.     Column Row Layer    Maximum-Head-Change  Column Row Layer    Maximum-Flux-Residual          L2-NORM 
          0                 1           2             5    6     1       0.5541985888E-02       5    6    1         0.2974591700E+00      0.8258257369E+00
          0                 2           2             4   13     1      -0.6279648332E-02       4   13    1        -0.3692987762E+00      0.8583409494E+00
          0                 3           2             4    7     1      -0.6727939540E-02       4    7    1        -0.3613340004E+00      0.8871514729E+00
          0                 4           2             4    7     1      -0.1807972763E-02       5    6    1        -0.9713801979E-01      0.2379462350E+00
          0                 5           2             4    7     1      -0.1013819684E-02       4    7    1        -0.5444518831E-01      0.1333585248E+00
          0                 6           2             4    7     1      -0.4996350945E-03       5    8    1        -0.2683183903E-01      0.6572409652E-01
          0                 7           2             4    7     1      -0.2505288979E-03       4    7    1        -0.1345388846E-01      0.3295513955E-01
          0                 8           2             4    7     1      -0.1253144576E-03       5    8    1        -0.6729567750E-02      0.1648400611E-01
          0                 9           1             4    7     1      -0.6270586312E-04       4    7    1        -0.3367363538E-02      0.8248322678E-02

    ------------------------------------------------
       NWT REQUIRED            9 OUTER ITERATIONS 
       AND A TOTAL OF         17 INNER ITERATIONS.
    ------------------------------------------------

 NO OUTPUT CONTROL FOR STRESS PERIOD   19   TIME STEP   11
 
 SOLVING FOR HEAD 
                                                   Max.-Head-Change                         Max.-Flux-Residual
  Residual-Control   Outer-Iter.   Inner-Iter.     Column Row Layer    Maximum-Head-Change  Column Row Layer    Maximum-Flux-Residual          L2-NORM 
          0                 1           2             5    6     1       0.5796189017E-02       5    6    1         0.3113502340E+00      0.8546476211E+00
          0                 2           2             4   13     1      -0.6305637419E-02       4   13    1        -0.3708268889E+00      0.8647272071E+00
          0                 3           2             4    7     1      -0.6697767139E-02       4    7    1        -0.3597145605E+00      0.8830609368E+00
          0                 4           2             4    7     1      -0.1810351366E-02       5    8    1        -0.9727177752E-01      0.2382648552E+00
          0                 5           2             4    7     1      -0.1013690238E-02       4    7    1        -0.5443821918E-01      0.1333412180E+00
          0                 6           2             4    7     1      -0.4996144320E-03       5    8    1        -0.2683107325E-01      0.6572152015E-01
          0                 7           2             4    7     1      -0.2504949475E-03       5    8    1        -0.1345219629E-01      0.3295072201E-01
          0                 8           2             4    7     1      -0.1252869280E-03       5    8    1        -0.6728164888E-02      0.1648041084E-01
          0                 9           1             4    7     1      -0.6268451292E-04       5    8    1        -0.3366254472E-02      0.8245527021E-02

    ------------------------------------------------
       NWT REQUIRED            9 OUTER ITERATIONS 
       AND A TOTAL OF         17 INNER ITERATIONS.
    ------------------------------------------------

 NO OUTPUT CONTROL FOR STRESS PERIOD   19   TIME STEP   12
 
 SOLVING FOR HEAD 
                                                   Max.-Head-Change                         Max.-Flux-Residual
  Residual-Control   Outer-Iter.   Inner-Iter.     Column Row Layer    Maximum-Head-Change  Column Row Layer    Maximum-Flux-Residual          L2-NORM 
          0                 1           2             5    6     1       0.6038262682E-02       5    6    1         0.3245687860E+00      0.8826246875E+00
          0                 2           2             4   13     1      -0.6329789978E-02       4   13    1        -0.3722464948E+00      0.8709545615E+00
          0                 3           2             4    7     1      -0.6666895957E-02       4    7    1        -0.3580574815E+00      0.8788880546E+00
          0                 4           2             4    7     1      -0.1812975346E-02       5    8    1        -0.9741834222E-01      0.2386169603E+00
          0                 5           2             4    7     1      -0.1013643504E-02       4    7    1        -0.5443569122E-01      0.1333351275E+00
          0                 6           2             4    7     1      -0.4996479125E-03       5    8    1        -0.2683317435E-01      0.6572629956E-01
          0                 7           2             4    7     1      -0.2504805141E-03       5    8    1        -0.1345154953E-01      0.3294897936E-01
          0                 8           2             4    7     1      -0.1252757903E-03       5    8    1        -0.6727633164E-02      0.1647902661E-01
          0                 9           1             4    7     1      -0.6267422388E-04       5    8    1        -0.3365734960E-02      0.8244213617E-02

    ------------------------------------------------
       NWT REQUIRED            9 OUTER ITERATIONS 
       AND A TOTAL OF         17 INNER ITERATIONS.
    ------------------------------------------------

 NO OUTPUT CONTROL FOR STRESS PERIOD   19   TIME STEP   13
 
 SOLVING FOR HEAD 
                                                   Max.-Head-Change                         Max.-Flux-Residual
  Residual-Control   Outer-Iter.   Inner-Iter.     Column Row Layer    Maximum-Head-Change  Column Row Layer    Maximum-Flux-Residual          L2-NORM 
          0                 1           2             5    6     1       0.6268673658E-02       5    6    1         0.3371413919E+00      0.9097198789E+00
          0                 2           2             4   13     1      -0.6352236268E-02       4   13    1        -0.3735652941E+00      0.8770184088E+00
          0                 3           2             4    7     1      -0.6635363118E-02       4    7    1        -0.3563647608E+00      0.8746352828E+00
          0                 4           2             4    7     1      -0.1815782168E-02       5    8    1        -0.9757226689E-01      0.2389906261E+00
          0                 5           2             4    7     1      -0.1013671650E-02       4    7    1        -0.5443718398E-01      0.1333385642E+00
          0                 6           2             4    7     1      -0.4997238767E-03       5    8    1        -0.2683725879E-01      0.6573638661E-01
          0                 7           2             4    7     1      -0.2505052821E-03       5    8    1        -0.1345287278E-01      0.3295226668E-01
          0                 8           2             4    7     1      -0.1252741154E-03       5    8    1        -0.6727540499E-02      0.1647882246E-01
          0                 9           1             4    7     1      -0.6266771229E-04       5    8    1        -0.3365383811E-02      0.8243364950E-02

    ------------------------------------------------
       NWT REQUIRED            9 OUTER ITERATIONS 
       AND A TOTAL OF         17 INNER ITERATIONS.
    ------------------------------------------------

 NO OUTPUT CONTROL FOR STRESS PERIOD   19   TIME STEP   14
 
 SOLVING FOR HEAD 
                                                   Max.-Head-Change                         Max.-Flux-Residual
  Residual-Control   Outer-Iter.   Inner-Iter.     Column Row Layer    Maximum-Head-Change  Column Row Layer    Maximum-Flux-Residual          L2-NORM 
          0                 1           2             5    6     1       0.6488585314E-02       5    6    1         0.3491332096E+00      0.9359264820E+00
          0                 2           2             4   13     1      -0.6373179220E-02       4   13    1        -0.3747953487E+00      0.8800938831E+00
          0                 3           2             4    7     1      -0.6627058427E-02       4    7    1        -0.3559193821E+00      0.8734398287E+00
          0                 4           2             4    7     1      -0.1825421713E-02       4    7    1        -0.9798263494E-01      0.2398991550E+00
          0                 5           2             4    7     1      -0.1016503220E-02       5    7    1        -0.5456625557E-01      0.1336544925E+00
          0                 6           2             4    7     1      -0.5012462615E-03       5    8    1        -0.2690378207E-01      0.6589981461E-01
          0                 7           2             4    7     1      -0.2512418692E-03       5    8    1        -0.1348510957E-01      0.3303132853E-01
          0                 8           2             4    7     1      -0.1256380583E-03       5    8    1        -0.6743402520E-02      0.1651773584E-01
          0                 9           1             4    7     1      -0.6284667256E-04       5    8    1        -0.3373153817E-02      0.8262426453E-02

    ------------------------------------------------
       NWT REQUIRED            9 OUTER ITERATIONS 
       AND A TOTAL OF         17 INNER ITERATIONS.
    ------------------------------------------------

 NO OUTPUT CONTROL FOR STRESS PERIOD   19   TIME STEP   15
 
 SOLVING FOR HEAD 
                                                   Max.-Head-Change                         Max.-Flux-Residual
  Residual-Control   Outer-Iter.   Inner-Iter.     Column Row Layer    Maximum-Head-Change  Column Row Layer    Maximum-Flux-Residual          L2-NORM 
          0                 1           2             5    6     1       0.6698200025E-02       5    6    1         0.3605554353E+00      0.9611879770E+00
          0                 2           2             4   13     1      -0.5867634116E-02       4   13    1        -0.3451447959E+00      0.6874631380E+00
          0                 3           2             4    7     1      -0.6655678564E-02       4    7    1        -0.3572620588E+00      0.8817854018E+00
          0                 4           2             4    7     1      -0.3156131604E-02       5    6    1        -0.1694622330E+00      0.4151106552E+00
          0                 5           2             4    7     1      -0.1282400587E-02       4    7    1        -0.6883113145E-01      0.1685940813E+00
          0                 6           2             4    7     1      -0.6622020027E-03       4    6    1        -0.3554295482E-01      0.8706076392E-01
          0                 7           2             4    7     1      -0.3297820483E-03       4    6    1        -0.1770042693E-01      0.4335632349E-01
          0                 8           2             4    7     1      -0.1650551597E-03       4    6    1        -0.8858945811E-02      0.2169955448E-01
          0                 9           1             4    7     1      -0.8255140414E-04       4    6    1        -0.4430709849E-02      0.1085280668E-01

    ------------------------------------------------
       NWT REQUIRED            9 OUTER ITERATIONS 
       AND A TOTAL OF         17 INNER ITERATIONS.
    ------------------------------------------------

 NO OUTPUT CONTROL FOR STRESS PERIOD   19   TIME STEP   16
 
 SOLVING FOR HEAD 
                                                   Max.-Head-Change                         Max.-Flux-Residual
  Residual-Control   Outer-Iter.   Inner-Iter.     Column Row Layer    Maximum-Head-Change  Column Row Layer    Maximum-Flux-Residual          L2-NORM 
          0                 1           2             5    6     1       0.6897827738E-02       5    6    1         0.3714260265E+00      0.9854988989E+00
          0                 2           2             4   13     1      -0.5880288877E-02       4   13    1        -0.3458879629E+00      0.6899708882E+00
          0                 3           2             4    7     1      -0.6659719288E-02       4    7    1        -0.3574795971E+00      0.8822471572E+00
          0                 4           2             4    7     1      -0.3143826665E-02       5    6    1        -0.1688041574E+00      0.4134966444E+00
          0                 5           2             4    7     1      -0.1286567333E-02       4    7    1        -0.6905476585E-01      0.1691416091E+00
          0                 6           2             4    7     1      -0.6635272551E-03       4    6    1        -0.3561408812E-01      0.8723499700E-01
          0                 7           2             4    7     1      -0.3304766606E-03       4    6    1        -0.1773770481E-01      0.4344763427E-01
          0                 8           2             4    7     1      -0.1653918932E-03       4    6    1        -0.8877017543E-02      0.2174382023E-01
          0                 9           1             4    7     1      -0.8271662310E-04       4    6    1        -0.4439576633E-02      0.1087452544E-01

    ------------------------------------------------
       NWT REQUIRED            9 OUTER ITERATIONS 
       AND A TOTAL OF         17 INNER ITERATIONS.
    ------------------------------------------------

 NO OUTPUT CONTROL FOR STRESS PERIOD   19   TIME STEP   17
 
 SOLVING FOR HEAD 
                                                   Max.-Head-Change                         Max.-Flux-Residual
  Residual-Control   Outer-Iter.   Inner-Iter.     Column Row Layer    Maximum-Head-Change  Column Row Layer    Maximum-Flux-Residual          L2-NORM 
          0                 1           2             5    6     1       0.7088545330E-02       5    6    1         0.3818046058E+00      0.1008958370E+01
          0                 2           2             4   13     1      -0.5896338195E-02       4   13    1        -0.3468298930E+00      0.6942878739E+00
          0                 3           2             4    7     1      -0.6639445492E-02       4    7    1        -0.3563919668E+00      0.8794885830E+00
          0                 4           2             4    7     1      -0.3132607133E-02       5    6    1        -0.1681995766E+00      0.4120205929E+00
          0                 5           2             4    7     1      -0.1290735821E-02       4    7    1        -0.6927849288E-01      0.1696879760E+00
          0                 6           2             4    7     1      -0.6648945886E-03       4    7    1        -0.3568691547E-01      0.8741416164E-01
          0                 7           2             4    7     1      -0.3311860958E-03       4    7    1        -0.1777560351E-01      0.4354057713E-01
          0                 8           2             4    7     1      -0.1657386947E-03       4    7    1        -0.8895535513E-02      0.2178925319E-01
          0                 9           1             4    7     1      -0.8288224790E-04       4    7    1        -0.4448418543E-02      0.1089621913E-01

    ------------------------------------------------
       NWT REQUIRED            9 OUTER ITERATIONS 
       AND A TOTAL OF         17 INNER ITERATIONS.
    ------------------------------------------------

 NO OUTPUT CONTROL FOR STRESS PERIOD   19   TIME STEP   18
 
 SOLVING FOR HEAD 
                                                   Max.-Head-Change                         Max.-Flux-Residual
  Residual-Control   Outer-Iter.   Inner-Iter.     Column Row Layer    Maximum-Head-Change  Column Row Layer    Maximum-Flux-Residual          L2-NORM 
          0                 1           2             5    6     1       0.7270739463E-02       5    6    1         0.3917125926E+00      0.1031584463E+01
          0                 2           2             4   13     1      -0.5888120712E-02       4   13    1        -0.3463478782E+00      0.6894512583E+00
          0                 3           2             4    7     1      -0.6695659896E-02       4    7    1        -0.3594097232E+00      0.8870097972E+00
          0                 4           2             4    7     1      -0.3140162521E-02       5    6    1        -0.1686068755E+00      0.4130187518E+00
          0                 5           2             4    7     1      -0.1299528656E-02       4    7    1        -0.6975042423E-01      0.1708437641E+00
          0                 6           2             4    7     1      -0.6689042620E-03       4    7    1        -0.3590211947E-01      0.8794130825E-01
          0                 7           2             4    7     1      -0.3332096688E-03       4    7    1        -0.1788421024E-01      0.4380660396E-01
          0                 8           2             4    7     1      -0.1667341672E-03       4    7    1        -0.8948962757E-02      0.2192012113E-01
          0                 9           1             4    7     1      -0.8338112214E-04       4    7    1        -0.4475193001E-02      0.1096180210E-01

    ------------------------------------------------
       NWT REQUIRED            9 OUTER ITERATIONS 
       AND A TOTAL OF         17 INNER ITERATIONS.
    ------------------------------------------------

 NO OUTPUT CONTROL FOR STRESS PERIOD   19   TIME STEP   19
 
 SOLVING FOR HEAD 
                                                   Max.-Head-Change                         Max.-Flux-Residual
  Residual-Control   Outer-Iter.   Inner-Iter.     Column Row Layer    Maximum-Head-Change  Column Row Layer    Maximum-Flux-Residual          L2-NORM 
          0                 1           2             5    6     1       0.7445211127E-02       5    6    1         0.4011942704E+00      0.1053415283E+01
          0                 2           2             4   13     1      -0.5902957898E-02       4   13    1        -0.3472180931E+00      0.6936447718E+00
          0                 3           2             4    7     1      -0.6674952268E-02       4    7    1        -0.3582986440E+00      0.8841960188E+00
          0                 4           2             4    7     1      -0.3128121078E-02       5    6    1        -0.1679621589E+00      0.4114375770E+00
          0                 5           2             4    7     1      -0.1303884638E-02       4    7    1        -0.6998421323E-01      0.1714162549E+00
          0                 6           2             4    7     1      -0.6703228824E-03       4    7    1        -0.3597825362E-01      0.8812780638E-01
          0                 7           2             4    7     1      -0.3339510518E-03       4    7    1        -0.1792399851E-01      0.4390406300E-01
          0                 8           2             4    7     1      -0.1670976116E-03       4    7    1        -0.8968467730E-02      0.2196789910E-01
          0                 9           1             4    7     1      -0.8356224016E-04       4    7    1        -0.4484912959E-02      0.1098561357E-01

    ------------------------------------------------
       NWT REQUIRED            9 OUTER ITERATIONS 
       AND A TOTAL OF         17 INNER ITERATIONS.
    ------------------------------------------------

 NO OUTPUT CONTROL FOR STRESS PERIOD   19   TIME STEP   20
 
 SOLVING FOR HEAD 
                                                   Max.-Head-Change                         Max.-Flux-Residual
  Residual-Control   Outer-Iter.   Inner-Iter.     Column Row Layer    Maximum-Head-Change  Column Row Layer    Maximum-Flux-Residual          L2-NORM 
          0                 1           2             5    6     1       0.7612125092E-02       5    6    1         0.4102594781E+00      0.1074480034E+01
          0                 2           2             4   13     1      -0.5917486124E-02       4   13    1        -0.3480699490E+00      0.6980047413E+00
          0                 3           2             4    7     1      -0.6667148199E-02       4    7    1        -0.3578800791E+00      0.8830623800E+00
          0                 4           2             4    7     1      -0.3104005804E-02       5    6    1        -0.1666691624E+00      0.4082688758E+00
          0                 5           2             4    7     1      -0.1306604068E-02       4    7    1        -0.7013016205E-01      0.1717736151E+00
          0                 6           2             4    7     1      -0.6706123391E-03       4    7    1        -0.3599378205E-01      0.8816585069E-01
          0                 7           2             4    7     1      -0.3341562939E-03       4    7    1        -0.1793501066E-01      0.4393103623E-01
          0                 8           2             4    7     1      -0.1671898854E-03       4    7    1        -0.8973418380E-02      0.2198002419E-01
          0                 9           1             4    7     1      -0.8360354862E-04       4    7    1        -0.4487129106E-02      0.1099103905E-01

    ------------------------------------------------
       NWT REQUIRED            9 OUTER ITERATIONS 
       AND A TOTAL OF         17 INNER ITERATIONS.
    ------------------------------------------------

 NO OUTPUT CONTROL FOR STRESS PERIOD   19   TIME STEP   21
 
 SOLVING FOR HEAD 
                                                   Max.-Head-Change                         Max.-Flux-Residual
  Residual-Control   Outer-Iter.   Inner-Iter.     Column Row Layer    Maximum-Head-Change  Column Row Layer    Maximum-Flux-Residual          L2-NORM 
          0                 1           2             5    6     1       0.7771934866E-02       5    6    1         0.4189329039E+00      0.1094801545E+01
          0                 2           2             4   13     1      -0.5925992618E-02       4   13    1        -0.3485683065E+00      0.7002685043E+00
          0                 3           2             4    7     1      -0.6656191485E-02       4    7    1        -0.3572922310E+00      0.8815915599E+00
          0                 4           2             4    7     1      -0.3098803627E-02       5    6    1        -0.1663911136E+00      0.4075866807E+00
          0                 5           2             4    7     1      -0.1312618892E-02       4    7    1        -0.7045298561E-01      0.1725642352E+00
          0                 6           2             4    7     1      -0.6729931047E-03       4    7    1        -0.3612155723E-01      0.8847883889E-01
          0                 7           2             4    7     1      -0.3353755580E-03       4    7    1        -0.1800044786E-01      0.4409132260E-01
          0                 8           2             4    7     1      -0.1677908257E-03       4    7    1        -0.9005670170E-02      0.2205902370E-01
          0                 9           1             4    7     1      -0.8389907192E-04       4    7    1        -0.4502989354E-02      0.1102988811E-01

    ------------------------------------------------
       NWT REQUIRED            9 OUTER ITERATIONS 
       AND A TOTAL OF         17 INNER ITERATIONS.
    ------------------------------------------------

 NO OUTPUT CONTROL FOR STRESS PERIOD   19   TIME STEP   22
 
 SOLVING FOR HEAD 
                                                   Max.-Head-Change                         Max.-Flux-Residual
  Residual-Control   Outer-Iter.   Inner-Iter.     Column Row Layer    Maximum-Head-Change  Column Row Layer    Maximum-Flux-Residual          L2-NORM 
          0                 1           2             5    6     1       0.7925187282E-02       5    6    1         0.4272456384E+00      0.1114419414E+01
          0                 2           2             4   13     1      -0.5938968137E-02       4   13    1        -0.3493286611E+00      0.7044352208E+00
          0                 3           2             4    7     1      -0.6635374827E-02       4    7    1        -0.3561750909E+00      0.8787727000E+00
          0                 4           2             4    7     1      -0.3084312860E-02       5    6    1        -0.1656143348E+00      0.4056826209E+00
          0                 5           2             4    7     1      -0.1317057553E-02       4    7    1        -0.7069121044E-01      0.1731476619E+00
          0                 6           2             4    7     1      -0.6743637429E-03       4    7    1        -0.3619511575E-01      0.8865902306E-01
          0                 7           2             4    7     1      -0.3361080906E-03       4    7    1        -0.1803976090E-01      0.4418761674E-01
          0                 8           2             4    7     1      -0.1681493395E-03       4    7    1        -0.9024910407E-02      0.2210615185E-01
          0                 9           1             4    7     1      -0.8406943048E-04       4    7    1        -0.4512131796E-02      0.1105228212E-01

    ------------------------------------------------
       NWT REQUIRED            9 OUTER ITERATIONS 
       AND A TOTAL OF         17 INNER ITERATIONS.
    ------------------------------------------------

 NO OUTPUT CONTROL FOR STRESS PERIOD   19   TIME STEP   23
 
 SOLVING FOR HEAD 
                                                   Max.-Head-Change                         Max.-Flux-Residual
  Residual-Control   Outer-Iter.   Inner-Iter.     Column Row Layer    Maximum-Head-Change  Column Row Layer    Maximum-Flux-Residual          L2-NORM 
          0                 1           2             5    6     1       0.8072122024E-02       5    6    1         0.4352102102E+00      0.1133358300E+01
          0                 2           2             4   13     1      -0.5943347790E-02       4   13    1        -0.3495846686E+00      0.7016394306E+00
          0                 3           2             4    7     1      -0.6647974033E-02       4    7    1        -0.3568514725E+00      0.8804175677E+00
          0                 4           2             4    7     1      -0.3081038423E-02       5    6    1        -0.1654393936E+00      0.4052536617E+00
          0                 5           2             4    7     1      -0.1318880732E-02       4    7    1        -0.7078905274E-01      0.1733872323E+00
          0                 6           2             4    7     1      -0.6759952834E-03       4    7    1        -0.3628267762E-01      0.8887350982E-01
          0                 7           2             4    7     1      -0.3373331913E-03       4    7    1        -0.1810551126E-01      0.4434866972E-01
          0                 8           2             4    7     1      -0.1689508789E-03       4    7    1        -0.9067928695E-02      0.2221152369E-01
          0                 9           1             4    7     1      -0.8458189420E-04       4    7    1        -0.4539635518E-02      0.1111965150E-01

    ------------------------------------------------
       NWT REQUIRED            9 OUTER ITERATIONS 
       AND A TOTAL OF         17 INNER ITERATIONS.
    ------------------------------------------------

 NO OUTPUT CONTROL FOR STRESS PERIOD   19   TIME STEP   24
 
 SOLVING FOR HEAD 
                                                   Max.-Head-Change                         Max.-Flux-Residual
  Residual-Control   Outer-Iter.   Inner-Iter.     Column Row Layer    Maximum-Head-Change  Column Row Layer    Maximum-Flux-Residual          L2-NORM 
          0                 1           2             5    6     1       0.8211746672E-02       5    6    1         0.4427726899E+00      0.1151537226E+01
          0                 2           2             4   13     1      -0.5952763293E-02       4   13    1        -0.3501359278E+00      0.7045330519E+00
          0                 3           2             4    7     1      -0.6627728987E-02       4    7    1        -0.3557649800E+00      0.8777129151E+00
          0                 4           2             4    7     1      -0.3082871324E-02       5    6    1        -0.1655384147E+00      0.4054952205E+00
          0                 5           2             4    7     1      -0.1320043127E-02       4    7    1        -0.7085157289E-01      0.1735399970E+00
          0                 6           2             4    7     1      -0.6765537023E-03       4    7    1        -0.3631270627E-01      0.8894693759E-01
          0                 7           2             4    7     1      -0.3376139931E-03       4    7    1        -0.1812061271E-01      0.4438559053E-01
          0                 8           2             4    7     1      -0.1690978306E-03       4    7    1        -0.9075830710E-02      0.2223084521E-01
          0                 9           1             4    7     1      -0.8464824696E-04       4    7    1        -0.4543204223E-02      0.1112837574E-01

    ------------------------------------------------
       NWT REQUIRED            9 OUTER ITERATIONS 
       AND A TOTAL OF         17 INNER ITERATIONS.
    ------------------------------------------------

 NO OUTPUT CONTROL FOR STRESS PERIOD   19   TIME STEP   25
 
 SOLVING FOR HEAD 
                                                   Max.-Head-Change                         Max.-Flux-Residual
  Residual-Control   Outer-Iter.   Inner-Iter.     Column Row Layer    Maximum-Head-Change  Column Row Layer    Maximum-Flux-Residual          L2-NORM 
          0                 1           2             5    6     1       0.8345788871E-02       5    6    1         0.4500286338E+00      0.1169093057E+01
          0                 2           2             4   13     1      -0.5956456885E-02       4   13    1        -0.3503514287E+00      0.7058184400E+00
          0                 3           2             4    7     1      -0.6628068187E-02       4    7    1        -0.3557831393E+00      0.8777629339E+00
          0                 4           2             4    7     1      -0.3080704532E-02       5    6    1        -0.1654226049E+00      0.4052116770E+00
          0                 5           2             4    7     1      -0.1320804846E-02       4    7    1        -0.7089244072E-01      0.1736401683E+00
          0                 6           2             4    7     1      -0.6768203529E-03       4    7    1        -0.3632701054E-01      0.8898203116E-01
          0                 7           2             4    7     1      -0.3377608686E-03       4    7    1        -0.1812849195E-01      0.4440491782E-01
          0                 8           2             4    7     1      -0.1691708734E-03       4    7    1        -0.9079749112E-02      0.2224045685E-01
          0                 9           1             4    7     1      -0.8468535121E-04       4    7    1        -0.4545194684E-02      0.1113325812E-01

    ------------------------------------------------
       NWT REQUIRED            9 OUTER ITERATIONS 
       AND A TOTAL OF         17 INNER ITERATIONS.
    ------------------------------------------------

 NO OUTPUT CONTROL FOR STRESS PERIOD   19   TIME STEP   26
 
 SOLVING FOR HEAD 
                                                   Max.-Head-Change                         Max.-Flux-Residual
  Residual-Control   Outer-Iter.   Inner-Iter.     Column Row Layer    Maximum-Head-Change  Column Row Layer    Maximum-Flux-Residual          L2-NORM 
          0                 1           2             5    6     1       0.8474554807E-02       5    6    1         0.4569942378E+00      0.1186068990E+01
          0                 2           2             4   13     1      -0.5965440946E-02       4   13    1        -0.3508772275E+00      0.7055232434E+00
          0                 3           2             4    7     1      -0.6642006254E-02       4    7    1        -0.3565311938E+00      0.8795116433E+00
          0                 4           2             4    7     1      -0.3089821662E-02       5    6    1        -0.1659123118E+00      0.4064097735E+00
          0                 5           2             4    7     1      -0.1323631567E-02       4    7    1        -0.7104383958E-01      0.1740115875E+00
          0                 6           2             4    7     1      -0.6783705136E-03       4    8    1        -0.3641009614E-01      0.8918575970E-01
          0                 7           2             4    7     1      -0.3385285823E-03       4    7    1        -0.1816962258E-01      0.4450580950E-01
          0                 8           2             4    7     1      -0.1695546877E-03       4    7    1        -0.9100312247E-02      0.2229089691E-01
          0                 9           1             4    7     1      -0.8488392301E-04       4    7    1        -0.4555833787E-02      0.1115935400E-01

    ------------------------------------------------
       NWT REQUIRED            9 OUTER ITERATIONS 
       AND A TOTAL OF         17 INNER ITERATIONS.
    ------------------------------------------------

 NO OUTPUT CONTROL FOR STRESS PERIOD   19   TIME STEP   27
 
 SOLVING FOR HEAD 
                                                   Max.-Head-Change                         Max.-Flux-Residual
  Residual-Control   Outer-Iter.   Inner-Iter.     Column Row Layer    Maximum-Head-Change  Column Row Layer    Maximum-Flux-Residual          L2-NORM 
          0                 1           2             5    6     1       0.8598182262E-02       5    6    1         0.4636778831E+00      0.1202476115E+01
          0                 2           2             4   13     1      -0.5968089875E-02       4   13    1        -0.3510313182E+00      0.7036849328E+00
          0                 3           2             4    7     1      -0.6676096225E-02       4    7    1        -0.3583608761E+00      0.8839679165E+00
          0                 4           2             4    7     1      -0.3094637335E-02       5    6    1        -0.1661710020E+00      0.4070430154E+00
          0                 5           2             4    7     1      -0.1326002117E-02       4    7    1        -0.7117105994E-01      0.1743230511E+00
          0                 6           2             4    7     1      -0.6795606097E-03       4    7    1        -0.3647393720E-01      0.8934214998E-01
          0                 7           2             4    7     1      -0.3391327267E-03       4    7    1        -0.1820204447E-01      0.4458519729E-01
          0                 8           2             4    7     1      -0.1698555650E-03       4    7    1        -0.9116458892E-02      0.2233043344E-01
          0                 9           1             4    7     1      -0.8503388853E-04       4    7    1        -0.4563881640E-02      0.1117905991E-01

    ------------------------------------------------
       NWT REQUIRED            9 OUTER ITERATIONS 
       AND A TOTAL OF         17 INNER ITERATIONS.
    ------------------------------------------------

 NO OUTPUT CONTROL FOR STRESS PERIOD   19   TIME STEP   28
 
 SOLVING FOR HEAD 
                                                   Max.-Head-Change                         Max.-Flux-Residual
  Residual-Control   Outer-Iter.   Inner-Iter.     Column Row Layer    Maximum-Head-Change  Column Row Layer    Maximum-Flux-Residual          L2-NORM 
          0                 1           2             5    6     1       0.8716908187E-02       5    6    1         0.4701117543E+00      0.1204878118E+01
          0                 2           2             4   13     1      -0.5942081459E-02       4   13    1        -0.3494657545E+00      0.8620050142E+00
          0                 3           2             4    7     1      -0.6556779832E-02       4    7    1        -0.3519565082E+00      0.8656577302E+00
          0                 4           2             4    7     1      -0.3119006617E-02       5    6    1        -0.1674792006E+00      0.4102203836E+00
          0                 5           2             4    7     1      -0.1329033557E-02       4    7    1        -0.7133374889E-01      0.1747215462E+00
          0                 6           2             4    7     1      -0.6817296309E-03       4    8    1        -0.3659222761E-01      0.8962747507E-01
          0                 7           2             4    7     1      -0.3401798922E-03       4    7    1        -0.1825810685E-01      0.4472248201E-01
          0                 8           2             4    7     1      -0.1703823155E-03       4    7    1        -0.9144658566E-02      0.2239952428E-01
          0                 9           1             4    7     1      -0.8529981686E-04       4    7    1        -0.4578118414E-02      0.1121393825E-01

    ------------------------------------------------
       NWT REQUIRED            9 OUTER ITERATIONS 
       AND A TOTAL OF         17 INNER ITERATIONS.
    ------------------------------------------------

 NO OUTPUT CONTROL FOR STRESS PERIOD   19   TIME STEP   29
 
 SOLVING FOR HEAD 
                                                   Max.-Head-Change                         Max.-Flux-Residual
  Residual-Control   Outer-Iter.   Inner-Iter.     Column Row Layer    Maximum-Head-Change  Column Row Layer    Maximum-Flux-Residual          L2-NORM 
          0                 1           2             5    6     1       0.8885362924E-02       5    6    1         0.4792835303E+00      0.1209188048E+01
          0                 2           2             5    6     1      -0.7191725072E-02       5    6    1        -0.3957772634E+00      0.1126179111E+01
          0                 3           2             4    7     1      -0.6380121293E-02       4    7    1        -0.3424721126E+00      0.8399985665E+00
          0                 4           2             4    7     1      -0.3121950175E-02       5    6    1        -0.1676372294E+00      0.4105826420E+00
          0                 5           2             4    7     1      -0.1332713114E-02       4    7    1        -0.7153098958E-01      0.1752038148E+00
          0                 6           2             4    7     1      -0.6824084938E-03       4    7    1        -0.3662662968E-01      0.8971594460E-01
          0                 7           2             4    7     1      -0.3401135677E-03       4    7    1        -0.1825461115E-01      0.4471383601E-01
          0                 8           2             4    7     1      -0.1701560195E-03       4    7    1        -0.9132545798E-02      0.2236977810E-01
          0                 9           1             4    7     1      -0.8507470636E-04       4    7    1        -0.4566052916E-02      0.1118434842E-01

    ------------------------------------------------
       NWT REQUIRED            9 OUTER ITERATIONS 
       AND A TOTAL OF         17 INNER ITERATIONS.
    ------------------------------------------------

 NO OUTPUT CONTROL FOR STRESS PERIOD   19   TIME STEP   30



 STREAM LISTING     PERIOD     19   STEP       30

 LAYER ROW COL. STREAM  RCH.  FLOW INTO     FLOW TO   FLOW OUT OF   OVRLND.     DIRECT     STREAM       STREAM     STREAM     STREAM   STREAMBED  STREAMBED
                SEG.NO.  NO.  STRM. RCH.    AQUIFER    STRM. RCH.    RUNOFF     PRECIP       ET          HEAD       DEPTH      WIDTH   CONDCTNC.   GRADIENT

   1    1    1     1     1    2.0250E+01  2.2212E-01   2.0028E+01  0.000E+00  0.000E+00  0.000E+00  1.09415E+03  1.102E+00  1.203E+01  5.414E-02  1.367E+00
   1    2    2     1     2    2.0028E+01  3.4298E-01   1.9685E+01  0.000E+00  0.000E+00  0.000E+00  1.08916E+03  1.098E+00  1.196E+01  8.370E-02  1.366E+00
   1    3    3     1     3    1.9685E+01  2.9127E-01   1.9394E+01  0.000E+00  0.000E+00  0.000E+00  1.08351E+03  1.093E+00  1.186E+01  7.117E-02  1.364E+00
   1    3    4     1     4    1.9394E+01  2.6721E-01   1.9127E+01  0.000E+00  0.000E+00  0.000E+00  1.07850E+03  1.088E+00  1.178E+01  6.536E-02  1.363E+00
   1    4    5     2     1    1.7127E+01  3.0866E-01   1.6818E+01  0.000E+00  0.000E+00  0.000E+00  1.07289E+03  9.572E-01  1.200E+01  7.800E-02  1.319E+00
   1    5    6     2     2    1.6818E+01  2.3687E-01   1.6581E+01  0.000E+00  0.000E+00  0.000E+00  1.06746E+03  9.479E-01  1.200E+01  6.000E-02  1.316E+00
   1    6    6     2     3    1.6581E+01  2.3639E-01   1.6345E+01  0.000E+00  0.000E+00  0.000E+00  1.06273E+03  9.398E-01  1.200E+01  6.000E-02  1.313E+00
   1    7    6     2     4    1.6345E+01  2.3590E-01   1.6109E+01  0.000E+00  0.000E+00  0.000E+00  1.05801E+03  9.317E-01  1.200E+01  6.000E-02  1.311E+00
   1    8    6     2     5    1.6109E+01  2.3541E-01   1.5873E+01  0.000E+00  0.000E+00  0.000E+00  1.05328E+03  9.236E-01  1.200E+01  6.000E-02  1.308E+00
   1    3    5     3     1    2.0000E+00  2.8252E-01   1.7175E+00  0.000E+00  0.000E+00  0.000E+00  1.07555E+03  1.909E+00  9.636E+00  7.227E-02  1.955E+00
   1    3    6     3     2    1.7175E+00  2.4905E-01   1.4684E+00  0.000E+00  0.000E+00  0.000E+00  1.07264E+03  1.727E+00  8.909E+00  6.682E-02  1.864E+00
   1    3    7     3     3    1.4684E+00  1.9718E-01   1.2712E+00  0.000E+00  0.000E+00  0.000E+00  1.06987E+03  1.555E+00  8.218E+00  5.547E-02  1.777E+00
   1    4    8     3     4    1.2712E+00  2.2567E-01   1.0456E+00  0.000E+00  0.000E+00  0.000E+00  1.06682E+03  1.364E+00  7.455E+00  6.709E-02  1.682E+00
   1    5    8     3     5    1.0456E+00  1.5790E-01   8.8768E-01  0.000E+00  0.000E+00  0.000E+00  1.06362E+03  1.164E+00  6.655E+00  4.991E-02  1.582E+00
   1    6    8     3     6    8.8768E-01  5.5980E-02   8.3170E-01  0.000E+00  0.000E+00  0.000E+00  1.06158E+03  1.036E+00  6.145E+00  1.844E-02  1.518E+00
   1    5   10     4     1    1.0000E+01  9.0919E-02   9.9091E+00  0.000E+00  0.000E+00  0.000E+00  1.07836E+03  6.368E-01  1.000E+01  2.500E-02  1.212E+00
   1    5    9     4     2    9.9091E+00  1.8158E-01   9.7275E+00  0.000E+00  0.000E+00  0.000E+00  1.07154E+03  6.315E-01  1.000E+01  5.000E-02  1.211E+00
   1    6    8     4     3    9.7275E+00  1.2689E-01   9.6006E+00  0.000E+00  0.000E+00  0.000E+00  1.06381E+03  6.256E-01  1.000E+01  3.500E-02  1.209E+00
   1    6    8     5     1    1.0432E+01  2.2686E-01   1.0205E+01  0.000E+00  0.000E+00  0.000E+00  1.05868E+03  6.790E-01  1.542E+01  6.166E-02  1.226E+00
   1    7    7     5     2    1.0205E+01  2.7894E-01   9.9265E+00  0.000E+00  0.000E+00  0.000E+00  1.05417E+03  6.732E-01  1.519E+01  7.594E-02  1.224E+00
   1    8    7     5     3    9.9265E+00  1.9221E-01   9.7343E+00  0.000E+00  0.000E+00  0.000E+00  1.04992E+03  6.676E-01  1.497E+01  5.241E-02  1.223E+00
   1    8    6     5     4    9.7343E+00  1.3577E-01   9.5985E+00  0.000E+00  0.000E+00  0.000E+00  1.04691E+03  6.637E-01  1.482E+01  3.706E-02  1.221E+00
   1    9    6     6     1    9.5985E+00  2.2097E-01   9.3776E+00  0.000E+00  0.000E+00  0.000E+00  1.04341E+03  6.828E-01  1.200E+01  6.000E-02  1.228E+00
   1   10    7     6     2    9.3776E+00  2.2039E-01   9.1572E+00  0.000E+00  0.000E+00  0.000E+00  1.03885E+03  6.732E-01  1.200E+01  6.000E-02  1.224E+00
   1   11    7     6     3    9.1572E+00  2.1981E-01   8.9374E+00  0.000E+00  0.000E+00  0.000E+00  1.03430E+03  6.636E-01  1.200E+01  6.000E-02  1.221E+00
   1   12    7     6     4    8.9374E+00  2.1923E-01   8.7181E+00  0.000E+00  0.000E+00  0.000E+00  1.02974E+03  6.539E-01  1.200E+01  6.000E-02  1.218E+00
   1   13    7     6     5    8.7181E+00 -5.4521E-02   8.7727E+00  0.000E+00  0.000E+00  0.000E+00  1.02656E+03  6.502E-01  1.200E+01  2.400E-01 -7.572E-02
   1   14    9     7     1    1.5000E+02  1.3716E+00   1.4863E+02  0.000E+00  0.000E+00  0.000E+00  1.03987E+03  2.288E+00  5.529E+01  5.593E-01  8.175E-01
   1   13    8     7     2    1.4863E+02  1.9296E+00   1.4670E+02  0.000E+00  0.000E+00  0.000E+00  1.03478E+03  2.279E+00  5.525E+01  6.148E-01  1.046E+00
   1   13    7     7     3    1.4670E+02  1.6206E+00   1.4508E+02  0.000E+00  0.000E+00  0.000E+00  1.02969E+03  2.269E+00  5.521E+01  5.584E-01  9.674E-01
   1   13    6     8     1    1.5385E+02  9.7336E-01   1.5288E+02  0.000E+00  0.000E+00  0.000E+00  1.02472E+03  2.840E+00  4.119E+01  4.197E-01  7.731E-01
   1   13    5     8     2    1.5288E+02  2.3586E-01   1.5264E+02  0.000E+00  0.000E+00  0.000E+00  1.01846E+03  2.836E+00  4.112E+01  4.191E-01  1.876E-01
   1   13    4     8     3    1.5264E+02 -2.2137E+00   1.5486E+02  0.000E+00  0.000E+00  0.000E+00  1.01222E+03  2.843E+00  4.122E+01  4.201E+00 -1.757E-01
   1   13    3     8     4    1.5486E+02 -3.5412E+00   1.5840E+02  0.000E+00  0.000E+00  0.000E+00  1.00599E+03  2.863E+00  4.151E+01  4.230E+00 -2.790E-01
   1   13    2     8     5    1.5840E+02 -2.5786E+00   1.6098E+02  0.000E+00  0.000E+00  0.000E+00  9.99759E+02  2.884E+00  4.181E+01  4.261E+00 -2.017E-01
   1   13    1     8     6    1.6098E+02 -2.0110E+00   1.6299E+02  0.000E+00  0.000E+00  0.000E+00  9.94774E+02  2.899E+00  4.204E+01  2.570E+00 -2.608E-01
   1    8    6     9     1    1.5873E+01  0.0000E+00   1.5873E+01  0.000E+00  0.000E+00  0.000E+00  1.08174E+03  2.990E+00  4.000E+00  0.000E+00  1.997E+00
   1    8    5     9     2    1.5873E+01  0.0000E+00   1.5873E+01  0.000E+00  0.000E+00  0.000E+00  1.08124E+03  2.990E+00  4.000E+00  0.000E+00  1.997E+00





UNSATURATED ZONE PACKAGE VOLUMETRIC BUDGET FOR  TIME STEP    30 STRESS PERIOD   19
  ------------------------------------------------------------------------------



     CUMULATIVE VOLUMES      L**3       RATES FOR THIS TIME STEP      L**3/T
     ------------------                 ------------------------

           IN:                                      IN:
           ---                                      ---
        INFILTRATION =   693955218.5735          INFILTRATION =          26.7001

          OUT:                                     OUT:
          ----                                     ----
              UZF ET =   636014937.6455                UZF ET =          26.5919
        UZF RECHARGE =      175481.8973          UZF RECHARGE =       0.0000E+00

            IN - OUT =    57764799.0307              IN - OUT =           0.1082

          STORAGE:                                 STORAGE:
          --------                                 --------
      STORAGE CHANGE =    57764791.7547        STORAGE CHANGE =           0.1082

 PERCENT DISCREPANCY IS DIFFERENCE BETWEEN IN-OUT MINUS CHANGE IN STORAGE
 DIVIDED BY THE AVERAGE OF IN AND OUT TIMES 100

 PERCENT DISCREPANCY =           0.00     PERCENT DISCREPANCY =           0.00






1
  VOLUMETRIC BUDGET FOR AGRICULTURAL FIELDS AT  END OF TIME STEP   30, STRESS PERIOD  19
  ------------------------------------------------------------------------------

     CUMULATIVE VOLUMES      L**3       RATES FOR THIS TIME STEP      L**3/T
     ------------------                 ------------------------

           IN:                                      IN:
           ---                                      ---
               AG WELLS  =   187645664.0000                 AG WELLS  =           6.4188
      DIVERSION SEGMENTS =   297579232.0000        DIVERSION SEGMENTS =          15.8735
           GW IRRIGATION =           0.0000             GW IRRIGATION =           0.0000
           SW IRRIGATION =           0.0000             SW IRRIGATION =           0.0000
        SYSTEM LOSSES GW =           0.0000          SYSTEM LOSSES GW =           0.0000
        SYSTEM LOSSES SW =           0.0000          SYSTEM LOSSES SW =           0.0000

                TOTAL IN =   485224896.0000                  TOTAL IN =          22.2923

          OUT:                                     OUT:
          ----                                     ----
               AG WELLS  =           0.0000                 AG WELLS  =           0.0000
      DIVERSION SEGMENTS =           0.0000        DIVERSION SEGMENTS =           0.0000
           GW IRRIGATION =   187645664.0000             GW IRRIGATION =           6.4188
           SW IRRIGATION =   297585184.0000             SW IRRIGATION =          15.8738
        SYSTEM LOSSES GW =           0.0000          SYSTEM LOSSES GW =           0.0000
        SYSTEM LOSSES SW =           0.0000          SYSTEM LOSSES SW =           0.0000

               TOTAL OUT =   485230848.0000                 TOTAL OUT =          22.2926

                IN - OUT =       -5952.0000                  IN - OUT =      -3.1853E-04

     PERCENT DISCREPANCY =          -0.00         PERCENT DISCREPANCY =          -0.00



1
  VOLUMETRIC BUDGET FOR ENTIRE MODEL AT END OF TIME STEP   30, STRESS PERIOD  19
  ------------------------------------------------------------------------------

     CUMULATIVE VOLUMES      L**3       RATES FOR THIS TIME STEP      L**3/T
     ------------------                 ------------------------

           IN:                                      IN:
           ---                                      ---
             STORAGE     =   287639936.0000               STORAGE     =           5.6474
       CONSTANT HEAD     =           0.0000         CONSTANT HEAD     =           0.0000
     HEAD DEP BOUNDS     =    13658691.0000       HEAD DEP BOUNDS     =           0.2882
      STREAM LEAKAGE     =   558126784.0000        STREAM LEAKAGE     =          11.7897
        UZF RECHARGE     =      175481.8594          UZF RECHARGE     =           0.0000
               GW ET     =           0.0000                 GW ET     =           0.0000
     SURFACE LEAKAGE     =           0.0000       SURFACE LEAKAGE     =           0.0000
           AG WELLS      =           0.0000             AG WELLS      =           0.0000

                TOTAL IN =   859600896.0000                  TOTAL IN =          17.7254

          OUT:                                     OUT:
          ----                                     ----
             STORAGE     =   170306496.0000               STORAGE     =           0.6186
       CONSTANT HEAD     =           0.0000         CONSTANT HEAD     =           0.0000
     HEAD DEP BOUNDS     =    13667793.0000       HEAD DEP BOUNDS     =           0.2872
      STREAM LEAKAGE     =   487955520.0000        STREAM LEAKAGE     =          10.3990
        UZF RECHARGE     =           0.0000          UZF RECHARGE     =           0.0000
               GW ET     =           0.0000                 GW ET     =           0.0000
     SURFACE LEAKAGE     =           0.0000       SURFACE LEAKAGE     =           0.0000
           AG WELLS      =   187645664.0000             AG WELLS      =           6.4188

               TOTAL OUT =   859575424.0000                 TOTAL OUT =          17.7234

                IN - OUT =       25472.0000                  IN - OUT =       1.9131E-03

     PERCENT DISCREPANCY =           0.00         PERCENT DISCREPANCY =           0.01






         TIME SUMMARY AT END OF TIME STEP   30 IN STRESS PERIOD   19
                    SECONDS     MINUTES      HOURS       DAYS        YEARS
                    -----------------------------------------------------------
   TIME STEP LENGTH  87667.      1461.1      24.352      1.0147     2.77799E-03
 STRESS PERIOD TIME 2.63000E+06  43833.      730.56      30.440     8.33397E-02
         TOTAL TIME 4.74265E+07 7.90442E+05  13174.      548.92      1.5029    
1
1
                            STRESS PERIOD NO.   20, LENGTH =   2630000.    
                            -----------------------------------------------

                              NUMBER OF TIME STEPS =    30

                               MULTIPLIER FOR DELT =     1.000

                            INITIAL TIME STEP SIZE =   87666.66    

 REUSING NON-PARAMETER GHB CELLS FROM LAST STRESS PERIOD

      2 GHB CELLS

 REUSING STREAM SEGMENT DATA FROM LAST STRESS PERIOD



            AREAL INFILTRATION RATE
 READING ON UNIT   19 WITH FORMAT: (10F4.0)            

            1           2           3           4           5           6           7           8           9          10
 ........................................................................................................................
   1   1.2000E-09   0.000       0.000       0.000       0.000       0.000       0.000       0.000       0.000       0.000    
   2   2.1000E-09  2.0000E-09  8.0000E-10  8.5000E-09   0.000       0.000       0.000       0.000       0.000       0.000    
   3   5.0000E-10  1.1000E-09  8.8000E-09  5.5000E-09   0.000       0.000       0.000       0.000       0.000       0.000    
   4   8.5000E-09  1.1000E-09  1.1000E-09  1.1000E-09  2.0000E-09   0.000       0.000       0.000       0.000       0.000    
   5   8.5000E-09  1.1000E-09  1.1000E-09  1.1000E-09  1.1000E-09   0.000       0.000       0.000       0.000       0.000    
   6   8.5000E-09  5.2000E-09  2.1000E-09  1.1000E-09  1.5000E-09   0.000       0.000       0.000       0.000       0.000    
   7   8.5000E-09  5.2000E-09  2.1000E-09  1.2000E-09  2.0000E-09   0.000       0.000       0.000       0.000       0.000    
   8   5.0000E-10  5.2000E-09  2.1000E-09  1.2000E-09  5.0000E-09   0.000       0.000       0.000       0.000       0.000    
   9   5.0000E-10  5.2000E-09  2.1000E-09  1.2000E-09  5.0000E-09   0.000       0.000       0.000       0.000       0.000    
  10   5.0000E-10  5.2000E-09  2.1000E-09  1.2000E-09  5.8000E-09   0.000       0.000       0.000       0.000       0.000    
  11   1.0000E-10  1.1000E-09  1.1000E-09  1.2000E-09  5.0000E-09   0.000       0.000       0.000       0.000       0.000    
  12   1.1000E-09  1.1000E-09  1.1000E-09  1.1000E-09  2.0000E-09   0.000       0.000       0.000       0.000       0.000    
  13   1.1000E-09  2.2000E-09  2.2000E-09  2.1000E-09  1.0000E-09   0.000       0.000       0.000       0.000       0.000    
  14   2.0000E-10  5.5000E-09  5.5000E-09  5.2000E-09  1.0000E-09   0.000       0.000       0.000       0.000       0.000    
  15    0.000      8.8000E-09  8.8000E-09   0.000       0.000       0.000       0.000       0.000       0.000       0.000    

                  ET RATE =  4.000000E-07

 USING ET EXTINCTION DEPTH FROM PREVIOUS STRESS PERIOD. CURRENT PERIOD IS:      20

 USING EXTINCTION WATER CONTENT FROM PREVIOUS STRESS PERIOD. CURRENT PERIOD IS:      20

 USING AIR ENTRY PRESSURE FROM PREVIOUS STRESS PERIOD. CURRENT PERIOD IS:      20

 USING ROOT PRESSURE HEAD FROM PREVIOUS STRESS PERIOD. CURRENT PERIOD IS:      20

 USING ROOT ACTIVITY FROM PREVIOUS STRESS PERIOD. CURRENT PERIOD IS:      20

 PROCESSING AG STRESS PERIOD DATA

 READING AG STRESS PERIOD DATA

 READING IRRIGATION SEGMENT

 READING IRRIGATION WELL

 READING SUPPLEMENTAL WELL

 END PROCESSING AG STRESS PERIOD DATA OPTIONS
 
 SOLVING FOR HEAD 
                                                   Max.-Head-Change                         Max.-Flux-Residual
  Residual-Control   Outer-Iter.   Inner-Iter.     Column Row Layer    Maximum-Head-Change  Column Row Layer    Maximum-Flux-Residual          L2-NORM 
          0                 1           2             4    7     1      -0.9244272430E-01       4    7    1        -0.4830201249E+01      0.1160721772E+02
          0                 2           2             5    6     1      -0.1046366914E-01       5    6    1        -0.5599858801E+00      0.1521418738E+01
          0                 3           2             4    7     1      -0.7356688125E-02       4    7    1        -0.3841340472E+00      0.9406991339E+00
          0                 4           2             4    7     1      -0.3463694117E-02       5    6    1        -0.1810012240E+00      0.4432133790E+00
          0                 5           2             4    7     1      -0.1753298355E-02       4    7    1        -0.9154108963E-01      0.2242033981E+00
          0                 6           2             4    7     1      -0.8745223208E-03       5    6    1        -0.4566091140E-01      0.1118436336E+00
          0                 7           2             4    7     1      -0.5786420284E-03       4    7    1        -0.3021123697E-01      0.7400151024E-01
          0                 8           2             4    7     1      -0.4972097838E-03       5    8    1        -0.2595962503E-01      0.6358757106E-01
          0                 9           2             4    7     1      -0.4128452468E-03       4    7    1        -0.2155488761E-01      0.5279825861E-01
          0                10           2             4    7     1      -0.3441903754E-03       5    8    1        -0.1797037763E-01      0.4401807666E-01
                                                   Max.-Head-Change                         Max.-Flux-Residual
  Residual-Control   Outer-Iter.   Inner-Iter.     Column Row Layer    Maximum-Head-Change  Column Row Layer    Maximum-Flux-Residual          L2-NORM 
          0                11           2             4    7     1      -0.2868054809E-03       5    8    1        -0.1497427898E-01      0.3667919372E-01
          0                12           2             4    7     1      -0.2390156845E-03       5    8    1        -0.1247914620E-01      0.3056741646E-01
          0                13           2             4    7     1      -0.1991710154E-03       5    8    1        -0.1039883308E-01      0.2547173153E-01
          0                14           2             4    7     1      -0.1659843293E-03       5    8    1        -0.8666137126E-02      0.2122752784E-01
          0                15           2             4    7     1      -0.1383057269E-03       5    8    1        -0.7221021395E-02      0.1768774603E-01
          0                16           2             4    7     1      -0.1152638383E-03       5    8    1        -0.6017991115E-02      0.1474094775E-01
          0                17           1             4    7     1      -0.9605990430E-04       5    8    1        -0.5015342646E-02      0.1228498055E-01

    ------------------------------------------------
       NWT REQUIRED           17 OUTER ITERATIONS 
       AND A TOTAL OF         33 INNER ITERATIONS.
    ------------------------------------------------

 OUTPUT CONTROL FOR STRESS PERIOD   20   TIME STEP    1
    PRINT BUDGET
    SAVE BUDGET
    SAVE BUDGET
    SAVE HEAD FOR ALL LAYERS
 UBDSV1 SAVING "         STORAGE" ON UNIT 102 AT TIME STEP  1, STRESS PERIOD  20
 UBDSV2 SAVING "   CONSTANT HEAD" ON UNIT 102 AT TIME STEP  1, STRESS PERIOD  20
 UBDSV1 SAVING "FLOW RIGHT FACE " ON UNIT 102 AT TIME STEP  1, STRESS PERIOD  20
 UBDSV1 SAVING "FLOW FRONT FACE " ON UNIT 102 AT TIME STEP  1, STRESS PERIOD  20

  HEAD DEP BOUNDS   PERIOD   20   STEP     1
 BOUNDARY      1   LAYER   1   ROW    13   COL     1   RATE   -0.287121    
 BOUNDARY      2   LAYER   1   ROW    14   COL     9   RATE    0.288195    



 STREAM LISTING     PERIOD     20   STEP        1

 LAYER ROW COL. STREAM  RCH.  FLOW INTO     FLOW TO   FLOW OUT OF   OVRLND.     DIRECT     STREAM       STREAM     STREAM     STREAM   STREAMBED  STREAMBED
                SEG.NO.  NO.  STRM. RCH.    AQUIFER    STRM. RCH.    RUNOFF     PRECIP       ET          HEAD       DEPTH      WIDTH   CONDCTNC.   GRADIENT

   1    1    1     1     1    2.0250E+01  2.2212E-01   2.0028E+01  0.000E+00  0.000E+00  0.000E+00  1.09415E+03  1.102E+00  1.203E+01  5.414E-02  1.367E+00
   1    2    2     1     2    2.0028E+01  3.4298E-01   1.9685E+01  0.000E+00  0.000E+00  0.000E+00  1.08916E+03  1.098E+00  1.196E+01  8.370E-02  1.366E+00
   1    3    3     1     3    1.9685E+01  2.9127E-01   1.9394E+01  0.000E+00  0.000E+00  0.000E+00  1.08351E+03  1.093E+00  1.186E+01  7.117E-02  1.364E+00
   1    3    4     1     4    1.9394E+01  2.6721E-01   1.9127E+01  0.000E+00  0.000E+00  0.000E+00  1.07850E+03  1.088E+00  1.178E+01  6.536E-02  1.363E+00
   1    4    5     2     1    1.7127E+01  3.0866E-01   1.6818E+01  0.000E+00  0.000E+00  0.000E+00  1.07289E+03  9.572E-01  1.200E+01  7.800E-02  1.319E+00
   1    5    6     2     2    1.6818E+01  2.3687E-01   1.6581E+01  0.000E+00  0.000E+00  0.000E+00  1.06746E+03  9.479E-01  1.200E+01  6.000E-02  1.316E+00
   1    6    6     2     3    1.6581E+01  2.3639E-01   1.6345E+01  0.000E+00  0.000E+00  0.000E+00  1.06273E+03  9.398E-01  1.200E+01  6.000E-02  1.313E+00
   1    7    6     2     4    1.6345E+01  2.3590E-01   1.6109E+01  0.000E+00  0.000E+00  0.000E+00  1.05801E+03  9.317E-01  1.200E+01  6.000E-02  1.311E+00
   1    8    6     2     5    1.6109E+01  2.3541E-01   1.5873E+01  0.000E+00  0.000E+00  0.000E+00  1.05328E+03  9.236E-01  1.200E+01  6.000E-02  1.308E+00
   1    3    5     3     1    2.0000E+00  2.8252E-01   1.7175E+00  0.000E+00  0.000E+00  0.000E+00  1.07555E+03  1.909E+00  9.636E+00  7.227E-02  1.955E+00
   1    3    6     3     2    1.7175E+00  2.4905E-01   1.4684E+00  0.000E+00  0.000E+00  0.000E+00  1.07264E+03  1.727E+00  8.909E+00  6.682E-02  1.864E+00
   1    3    7     3     3    1.4684E+00  1.9718E-01   1.2712E+00  0.000E+00  0.000E+00  0.000E+00  1.06987E+03  1.555E+00  8.218E+00  5.547E-02  1.777E+00
   1    4    8     3     4    1.2712E+00  2.2567E-01   1.0456E+00  0.000E+00  0.000E+00  0.000E+00  1.06682E+03  1.364E+00  7.455E+00  6.709E-02  1.682E+00
   1    5    8     3     5    1.0456E+00  1.5790E-01   8.8768E-01  0.000E+00  0.000E+00  0.000E+00  1.06362E+03  1.164E+00  6.655E+00  4.991E-02  1.582E+00
   1    6    8     3     6    8.8768E-01  5.5980E-02   8.3170E-01  0.000E+00  0.000E+00  0.000E+00  1.06158E+03  1.036E+00  6.145E+00  1.844E-02  1.518E+00
   1    5   10     4     1    1.0000E+01  9.0919E-02   9.9091E+00  0.000E+00  0.000E+00  0.000E+00  1.07836E+03  6.368E-01  1.000E+01  2.500E-02  1.212E+00
   1    5    9     4     2    9.9091E+00  1.8158E-01   9.7275E+00  0.000E+00  0.000E+00  0.000E+00  1.07154E+03  6.315E-01  1.000E+01  5.000E-02  1.211E+00
   1    6    8     4     3    9.7275E+00  1.2689E-01   9.6006E+00  0.000E+00  0.000E+00  0.000E+00  1.06381E+03  6.256E-01  1.000E+01  3.500E-02  1.209E+00
   1    6    8     5     1    1.0432E+01  2.2686E-01   1.0205E+01  0.000E+00  0.000E+00  0.000E+00  1.05868E+03  6.790E-01  1.542E+01  6.166E-02  1.226E+00
   1    7    7     5     2    1.0205E+01  2.7894E-01   9.9265E+00  0.000E+00  0.000E+00  0.000E+00  1.05417E+03  6.732E-01  1.519E+01  7.594E-02  1.224E+00
   1    8    7     5     3    9.9265E+00  1.9221E-01   9.7343E+00  0.000E+00  0.000E+00  0.000E+00  1.04992E+03  6.676E-01  1.497E+01  5.241E-02  1.223E+00
   1    8    6     5     4    9.7343E+00  1.3577E-01   9.5985E+00  0.000E+00  0.000E+00  0.000E+00  1.04691E+03  6.637E-01  1.482E+01  3.706E-02  1.221E+00
   1    9    6     6     1    9.5985E+00  2.2097E-01   9.3776E+00  0.000E+00  0.000E+00  0.000E+00  1.04341E+03  6.828E-01  1.200E+01  6.000E-02  1.228E+00
   1   10    7     6     2    9.3776E+00  2.2039E-01   9.1572E+00  0.000E+00  0.000E+00  0.000E+00  1.03885E+03  6.732E-01  1.200E+01  6.000E-02  1.224E+00
   1   11    7     6     3    9.1572E+00  2.1981E-01   8.9374E+00  0.000E+00  0.000E+00  0.000E+00  1.03430E+03  6.636E-01  1.200E+01  6.000E-02  1.221E+00
   1   12    7     6     4    8.9374E+00  2.1923E-01   8.7181E+00  0.000E+00  0.000E+00  0.000E+00  1.02974E+03  6.539E-01  1.200E+01  6.000E-02  1.218E+00
   1   13    7     6     5    8.7181E+00 -5.4361E-02   8.7725E+00  0.000E+00  0.000E+00  0.000E+00  1.02656E+03  6.502E-01  1.200E+01  2.400E-01 -7.550E-02
   1   14    9     7     1    1.5000E+02  1.3716E+00   1.4863E+02  0.000E+00  0.000E+00  0.000E+00  1.03987E+03  2.288E+00  5.529E+01  5.593E-01  8.175E-01
   1   13    8     7     2    1.4863E+02  1.9297E+00   1.4670E+02  0.000E+00  0.000E+00  0.000E+00  1.03478E+03  2.279E+00  5.525E+01  6.148E-01  1.046E+00
   1   13    7     7     3    1.4670E+02  1.6210E+00   1.4508E+02  0.000E+00  0.000E+00  0.000E+00  1.02969E+03  2.269E+00  5.521E+01  5.584E-01  9.676E-01
   1   13    6     8     1    1.5385E+02  9.7370E-01   1.5288E+02  0.000E+00  0.000E+00  0.000E+00  1.02472E+03  2.840E+00  4.119E+01  4.197E-01  7.733E-01
   1   13    5     8     2    1.5288E+02  2.3619E-01   1.5264E+02  0.000E+00  0.000E+00  0.000E+00  1.01846E+03  2.836E+00  4.112E+01  4.191E-01  1.879E-01
   1   13    4     8     3    1.5264E+02 -2.2119E+00   1.5485E+02  0.000E+00  0.000E+00  0.000E+00  1.01222E+03  2.843E+00  4.122E+01  4.201E+00 -1.755E-01
   1   13    3     8     4    1.5485E+02 -3.5393E+00   1.5839E+02  0.000E+00  0.000E+00  0.000E+00  1.00599E+03  2.863E+00  4.151E+01  4.230E+00 -2.789E-01
   1   13    2     8     5    1.5839E+02 -2.5764E+00   1.6097E+02  0.000E+00  0.000E+00  0.000E+00  9.99759E+02  2.884E+00  4.181E+01  4.261E+00 -2.016E-01
   1   13    1     8     6    1.6097E+02 -2.0091E+00   1.6298E+02  0.000E+00  0.000E+00  0.000E+00  9.94774E+02  2.899E+00  4.204E+01  2.570E+00 -2.606E-01
   1    8    6     9     1    1.5873E+01  0.0000E+00   1.5873E+01  0.000E+00  0.000E+00  0.000E+00  1.08174E+03  2.990E+00  4.000E+00  0.000E+00  1.997E+00
   1    8    5     9     2    1.5873E+01  0.0000E+00   1.5873E+01  0.000E+00  0.000E+00  0.000E+00  1.08124E+03  2.990E+00  4.000E+00  0.000E+00  1.997E+00



 UBDSV3 SAVING "           GW ET" ON UNIT  61 AT TIME STEP  1, STRESS PERIOD  20
 UBDSV3 SAVING "    UZF RECHARGE" ON UNIT  61 AT TIME STEP  1, STRESS PERIOD  20
 UBDSV3 SAVING " SURFACE LEAKAGE" ON UNIT  61 AT TIME STEP  1, STRESS PERIOD  20
 UBDSV3 SAVING "       HORT+DUNN" ON UNIT  61 AT TIME STEP  1, STRESS PERIOD  20
 UBDSV3 SAVING "  STORAGE CHANGE" ON UNIT  61 AT TIME STEP  1, STRESS PERIOD  20


UNSATURATED ZONE PACKAGE VOLUMETRIC BUDGET FOR  TIME STEP     1 STRESS PERIOD   20
  ------------------------------------------------------------------------------



     CUMULATIVE VOLUMES      L**3       RATES FOR THIS TIME STEP      L**3/T
     ------------------                 ------------------------

           IN:                                      IN:
           ---                                      ---
        INFILTRATION =   699514112.9553          INFILTRATION =          63.4094

          OUT:                                     OUT:
          ----                                     ----
              UZF ET =   641632566.3398                UZF ET =          64.0794
        UZF RECHARGE =      175481.8973          UZF RECHARGE =       0.0000E+00

            IN - OUT =    57706064.7182              IN - OUT =          -0.6700

          STORAGE:                                 STORAGE:
          --------                                 --------
      STORAGE CHANGE =    57706057.3646        STORAGE CHANGE =          -0.6700

 PERCENT DISCREPANCY IS DIFFERENCE BETWEEN IN-OUT MINUS CHANGE IN STORAGE
 DIVIDED BY THE AVERAGE OF IN AND OUT TIMES 100

 PERCENT DISCREPANCY =           0.00     PERCENT DISCREPANCY =           0.00






 

            AG WELLS      PERIOD   20   STEP   1
 AG WELL      1   LAYER   1   ROW     6   COL     4   RATE    -7.18802    
 AG WELL      2   LAYER   1   ROW     6   COL     5   RATE    -7.18802    
 AG WELL      3   LAYER   1   ROW     7   COL     4   RATE    -7.18802    
 AG WELL      4   LAYER   1   ROW     7   COL     5   RATE    -7.18802    
 AG WELL      5   LAYER   1   ROW     8   COL     4   RATE    -7.18802    
 AG WELL      6   LAYER   1   ROW     8   COL     5   RATE    -7.18802    
 
 

   DIVERSION SEGMENTS     PERIOD   20   STEP   1
 SEGMENT      9   RATE     15.8735    
 
 

        SW IRRIGATION     PERIOD   20   STEP   1
 SEGMENT      9   ROW     6   COL     4   RATE     2.64564    
 SEGMENT      9   ROW     6   COL     5   RATE     2.64564    
 SEGMENT      9   ROW     7   COL     4   RATE     2.64564    
 SEGMENT      9   ROW     7   COL     5   RATE     2.64564    
 SEGMENT      9   ROW     8   COL     4   RATE     2.64564    
 SEGMENT      9   ROW     8   COL     5   RATE     2.64564    
 
 

        GW IRRIGATION     PERIOD   20   STEP   1
 AG WELL      1   ROW     6   COL     4   RATE     7.18802    
 AG WELL      2   ROW     6   COL     5   RATE     7.18802    
 AG WELL      3   ROW     7   COL     4   RATE     7.18802    
 AG WELL      4   ROW     7   COL     5   RATE     7.18802    
 AG WELL      5   ROW     8   COL     4   RATE     7.18802    
 AG WELL      6   ROW     8   COL     5   RATE     7.18802    
 
1
  VOLUMETRIC BUDGET FOR AGRICULTURAL FIELDS AT  END OF TIME STEP    1, STRESS PERIOD  20
  ------------------------------------------------------------------------------

     CUMULATIVE VOLUMES      L**3       RATES FOR THIS TIME STEP      L**3/T
     ------------------                 ------------------------

           IN:                                      IN:
           ---                                      ---
               AG WELLS  =   191426560.0000                 AG WELLS  =          43.1281
      DIVERSION SEGMENTS =   298970816.0000        DIVERSION SEGMENTS =          15.8735
           GW IRRIGATION =           0.0000             GW IRRIGATION =           0.0000
           SW IRRIGATION =           0.0000             SW IRRIGATION =           0.0000
        SYSTEM LOSSES GW =           0.0000          SYSTEM LOSSES GW =           0.0000
        SYSTEM LOSSES SW =           0.0000          SYSTEM LOSSES SW =           0.0000

                TOTAL IN =   490397376.0000                  TOTAL IN =          59.0016

          OUT:                                     OUT:
          ----                                     ----
               AG WELLS  =           0.0000                 AG WELLS  =           0.0000
      DIVERSION SEGMENTS =           0.0000        DIVERSION SEGMENTS =           0.0000
           GW IRRIGATION =   191426560.0000             GW IRRIGATION =          43.1281
           SW IRRIGATION =   298976800.0000             SW IRRIGATION =          15.8738
        SYSTEM LOSSES GW =           0.0000          SYSTEM LOSSES GW =           0.0000
        SYSTEM LOSSES SW =           0.0000          SYSTEM LOSSES SW =           0.0000

               TOTAL OUT =   490403360.0000                 TOTAL OUT =          59.0019

                IN - OUT =       -5984.0000                  IN - OUT =      -3.1662E-04

     PERCENT DISCREPANCY =          -0.00         PERCENT DISCREPANCY =          -0.00




 HEAD WILL BE SAVED ON UNIT   62 AT END OF TIME STEP    1, STRESS PERIOD   20
1
  VOLUMETRIC BUDGET FOR ENTIRE MODEL AT END OF TIME STEP    1, STRESS PERIOD  20
  ------------------------------------------------------------------------------

     CUMULATIVE VOLUMES      L**3       RATES FOR THIS TIME STEP      L**3/T
     ------------------                 ------------------------

           IN:                                      IN:
           ---                                      ---
             STORAGE     =   291350016.0000               STORAGE     =          42.3202
       CONSTANT HEAD     =           0.0000         CONSTANT HEAD     =           0.0000
     HEAD DEP BOUNDS     =    13683956.0000       HEAD DEP BOUNDS     =           0.2882
      STREAM LEAKAGE     =   559160448.0000        STREAM LEAKAGE     =          11.7909
        UZF RECHARGE     =      175481.8594          UZF RECHARGE     =           0.0000
               GW ET     =           0.0000                 GW ET     =           0.0000
     SURFACE LEAKAGE     =           0.0000       SURFACE LEAKAGE     =           0.0000
           AG WELLS      =           0.0000             AG WELLS      =           0.0000

                TOTAL IN =   864369920.0000                  TOTAL IN =          54.3993

          OUT:                                     OUT:
          ----                                     ----
             STORAGE     =   170358208.0000               STORAGE     =           0.5899
       CONSTANT HEAD     =           0.0000         CONSTANT HEAD     =           0.0000
     HEAD DEP BOUNDS     =    13692964.0000       HEAD DEP BOUNDS     =           0.2871
      STREAM LEAKAGE     =   488866464.0000        STREAM LEAKAGE     =          10.3912
        UZF RECHARGE     =           0.0000          UZF RECHARGE     =           0.0000
               GW ET     =           0.0000                 GW ET     =           0.0000
     SURFACE LEAKAGE     =           0.0000       SURFACE LEAKAGE     =           0.0000
           AG WELLS      =   191426560.0000             AG WELLS      =          43.1281

               TOTAL OUT =   864344192.0000                 TOTAL OUT =          54.3963

                IN - OUT =       25728.0000                  IN - OUT =       3.0098E-03

     PERCENT DISCREPANCY =           0.00         PERCENT DISCREPANCY =           0.01






         TIME SUMMARY AT END OF TIME STEP    1 IN STRESS PERIOD   20
                    SECONDS     MINUTES      HOURS       DAYS        YEARS
                    -----------------------------------------------------------
   TIME STEP LENGTH  87667.      1461.1      24.352      1.0147     2.77799E-03
 STRESS PERIOD TIME  87667.      1461.1      24.352      1.0147     2.77799E-03
         TOTAL TIME 4.75142E+07 7.91903E+05  13198.      549.93      1.5056    
1
 
 SOLVING FOR HEAD 
                                                   Max.-Head-Change                         Max.-Flux-Residual
  Residual-Control   Outer-Iter.   Inner-Iter.     Column Row Layer    Maximum-Head-Change  Column Row Layer    Maximum-Flux-Residual          L2-NORM 
          0                 1           2             4    7     1      -0.1321819030E+00       4    7    1        -0.6907931442E+01      0.1648475642E+02
          0                 2           2             4    7     1       0.1269057533E-01       4    7    1         0.6818218104E+00      0.1765794581E+01
          0                 3           2             4    7     1      -0.9995551850E-03       4    7    1        -0.5519680510E-01      0.1467952667E+00
          0                 4           1             4    7     1      -0.7192657089E-04       5    8    1        -0.4056495618E-02      0.1045569433E-01

    ------------------------------------------------
       NWT REQUIRED            4 OUTER ITERATIONS 
       AND A TOTAL OF          7 INNER ITERATIONS.
    ------------------------------------------------

 NO OUTPUT CONTROL FOR STRESS PERIOD   20   TIME STEP    2
 
 SOLVING FOR HEAD 
                                                   Max.-Head-Change                         Max.-Flux-Residual
  Residual-Control   Outer-Iter.   Inner-Iter.     Column Row Layer    Maximum-Head-Change  Column Row Layer    Maximum-Flux-Residual          L2-NORM 
          0                 1           2             4    7     1      -0.1313626694E+00       4    7    1        -0.6867896306E+01      0.1619844140E+02
          0                 2           2             4    7     1       0.1261077484E-01       4    7    1         0.6778121182E+00      0.1739625971E+01
          0                 3           2             4    7     1      -0.9941905267E-03       4    7    1        -0.5491994994E-01      0.1449537940E+00
          0                 4           1             5    6     1      -0.7265094208E-04       5    8    1        -0.4111602249E-02      0.1054159153E-01

    ------------------------------------------------
       NWT REQUIRED            4 OUTER ITERATIONS 
       AND A TOTAL OF          7 INNER ITERATIONS.
    ------------------------------------------------

 NO OUTPUT CONTROL FOR STRESS PERIOD   20   TIME STEP    3
 
 SOLVING FOR HEAD 
                                                   Max.-Head-Change                         Max.-Flux-Residual
  Residual-Control   Outer-Iter.   Inner-Iter.     Column Row Layer    Maximum-Head-Change  Column Row Layer    Maximum-Flux-Residual          L2-NORM 
          0                 1           2             4    7     1      -0.1305027336E+00       4    7    1        -0.6825510372E+01      0.1592638528E+02
          0                 2           2             4    7     1       0.1252762965E-01       4    7    1         0.6736003523E+00      0.1714907929E+01
          0                 3           2             4    7     1      -0.9881227791E-03       4    7    1        -0.5460272259E-01      0.1431734950E+00
          0                 4           1             5    6     1      -0.7315701770E-04       5    8    1        -0.4142353984E-02      0.1057801269E-01

    ------------------------------------------------
       NWT REQUIRED            4 OUTER ITERATIONS 
       AND A TOTAL OF          7 INNER ITERATIONS.
    ------------------------------------------------

 NO OUTPUT CONTROL FOR STRESS PERIOD   20   TIME STEP    4
 
 SOLVING FOR HEAD 
                                                   Max.-Head-Change                         Max.-Flux-Residual
  Residual-Control   Outer-Iter.   Inner-Iter.     Column Row Layer    Maximum-Head-Change  Column Row Layer    Maximum-Flux-Residual          L2-NORM 
          0                 1           2             4    7     1      -0.1296027736E+00       4    7    1        -0.6780821990E+01      0.1566710536E+02
          0                 2           2             4    7     1       0.1244055705E-01       4    7    1         0.6691565310E+00      0.1691411797E+01
          0                 3           2             4    7     1      -0.9817875891E-03       4    7    1        -0.5426925045E-01      0.1414490659E+00
          0                 4           1             5    8     1      -0.7364861435E-04       5    8    1        -0.4171393186E-02      0.1061213956E-01

    ------------------------------------------------
       NWT REQUIRED            4 OUTER ITERATIONS 
       AND A TOTAL OF          7 INNER ITERATIONS.
    ------------------------------------------------

 NO OUTPUT CONTROL FOR STRESS PERIOD   20   TIME STEP    5
 
 SOLVING FOR HEAD 
                                                   Max.-Head-Change                         Max.-Flux-Residual
  Residual-Control   Outer-Iter.   Inner-Iter.     Column Row Layer    Maximum-Head-Change  Column Row Layer    Maximum-Flux-Residual          L2-NORM 
          0                 1           2             4    7     1      -0.1286669255E+00       4    7    1        -0.6734058835E+01      0.1541968780E+02
          0                 2           2             4    7     1       0.1235000372E-01       4    7    1         0.6645057989E+00      0.1669060186E+01
          0                 3           2             4    7     1      -0.9752240131E-03       4    7    1        -0.5392177053E-01      0.1398031029E+00
          0                 4           1             5    8     1      -0.7409942742E-04       5    8    1        -0.4197929526E-02      0.1064367643E-01

    ------------------------------------------------
       NWT REQUIRED            4 OUTER ITERATIONS 
       AND A TOTAL OF          7 INNER ITERATIONS.
    ------------------------------------------------

 NO OUTPUT CONTROL FOR STRESS PERIOD   20   TIME STEP    6
 
 SOLVING FOR HEAD 
                                                   Max.-Head-Change                         Max.-Flux-Residual
  Residual-Control   Outer-Iter.   Inner-Iter.     Column Row Layer    Maximum-Head-Change  Column Row Layer    Maximum-Flux-Residual          L2-NORM 
          0                 1           2             4    7     1      -0.1276989399E+00       4    7    1        -0.6685428526E+01      0.1518329475E+02
          0                 2           2             4    7     1       0.1225634003E-01       4    7    1         0.6596679573E+00      0.1648863135E+01
          0                 3           2             4    7     1      -0.9684658154E-03       4    7    1        -0.5356214583E-01      0.1383072398E+00
          0                 4           1             5    6     1      -0.7448049493E-04       5    6    1        -0.4217056630E-02      0.1066931355E-01

    ------------------------------------------------
       NWT REQUIRED            4 OUTER ITERATIONS 
       AND A TOTAL OF          7 INNER ITERATIONS.
    ------------------------------------------------

 NO OUTPUT CONTROL FOR STRESS PERIOD   20   TIME STEP    7
 
 SOLVING FOR HEAD 
                                                   Max.-Head-Change                         Max.-Flux-Residual
  Residual-Control   Outer-Iter.   Inner-Iter.     Column Row Layer    Maximum-Head-Change  Column Row Layer    Maximum-Flux-Residual          L2-NORM 
          0                 1           2             4    7     1      -0.1267021845E+00       4    7    1        -0.6635122368E+01      0.1495619218E+02
          0                 2           2             4    7     1       0.1202703876E-01       4    7    1         0.6475348439E+00      0.1611725259E+01
          0                 3           2             4    7     1      -0.9634211383E-03       4    7    1        -0.5329600200E-01      0.1369446443E+00
          0                 4           1             5    8     1      -0.5199125798E-04       5    8    1        -0.2952645479E-02      0.7780145696E-02

    ------------------------------------------------
       NWT REQUIRED            4 OUTER ITERATIONS 
       AND A TOTAL OF          7 INNER ITERATIONS.
    ------------------------------------------------

 NO OUTPUT CONTROL FOR STRESS PERIOD   20   TIME STEP    8
 
 SOLVING FOR HEAD 
                                                   Max.-Head-Change                         Max.-Flux-Residual
  Residual-Control   Outer-Iter.   Inner-Iter.     Column Row Layer    Maximum-Head-Change  Column Row Layer    Maximum-Flux-Residual          L2-NORM 
          0                 1           2             4    7     1      -0.1256782171E+00       4    7    1        -0.6583232208E+01      0.1473762754E+02
          0                 2           2             4    7     1       0.1179339534E-01       4    7    1         0.6351513699E+00      0.1576484590E+01
          0                 3           2             4    7     1      -0.1012856228E-02       4    7    1        -0.5603452602E-01      0.1422354734E+00
          0                 4           1             5    8     1      -0.6697232619E-04       5    8    1        -0.3801494451E-02      0.9658630511E-02

    ------------------------------------------------
       NWT REQUIRED            4 OUTER ITERATIONS 
       AND A TOTAL OF          7 INNER ITERATIONS.
    ------------------------------------------------

 NO OUTPUT CONTROL FOR STRESS PERIOD   20   TIME STEP    9
 
 SOLVING FOR HEAD 
                                                   Max.-Head-Change                         Max.-Flux-Residual
  Residual-Control   Outer-Iter.   Inner-Iter.     Column Row Layer    Maximum-Head-Change  Column Row Layer    Maximum-Flux-Residual          L2-NORM 
          0                 1           2             4    7     1      -0.1246282199E+00       4    7    1        -0.6529832279E+01      0.1452741083E+02
          0                 2           2             4    7     1       0.1164460331E-01       4    7    1         0.6273071525E+00      0.1552390771E+01
          0                 3           2             4    7     1      -0.1025523128E-02       4    7    1        -0.5674332945E-01      0.1432014975E+00
          0                 4           1             5    8     1      -0.7795513689E-04       5    8    1        -0.4423957956E-02      0.1107290723E-01

    ------------------------------------------------
       NWT REQUIRED            4 OUTER ITERATIONS 
       AND A TOTAL OF          7 INNER ITERATIONS.
    ------------------------------------------------

 NO OUTPUT CONTROL FOR STRESS PERIOD   20   TIME STEP   10
 
 SOLVING FOR HEAD 
                                                   Max.-Head-Change                         Max.-Flux-Residual
  Residual-Control   Outer-Iter.   Inner-Iter.     Column Row Layer    Maximum-Head-Change  Column Row Layer    Maximum-Flux-Residual          L2-NORM 
          0                 1           2             4    7     1      -0.1235577422E+00       4    7    1        -0.6475218278E+01      0.1432548837E+02
          0                 2           2             4    7     1       0.1153967022E-01       4    7    1         0.6218025431E+00      0.1534452631E+01
          0                 3           2             4    7     1      -0.1018749697E-02       4    7    1        -0.5637851322E-01      0.1418925075E+00
          0                 4           1             5    8     1      -0.7874982450E-04       5    8    1        -0.4469683764E-02      0.1115974207E-01

    ------------------------------------------------
       NWT REQUIRED            4 OUTER ITERATIONS 
       AND A TOTAL OF          7 INNER ITERATIONS.
    ------------------------------------------------

 NO OUTPUT CONTROL FOR STRESS PERIOD   20   TIME STEP   11
 
 SOLVING FOR HEAD 
                                                   Max.-Head-Change                         Max.-Flux-Residual
  Residual-Control   Outer-Iter.   Inner-Iter.     Column Row Layer    Maximum-Head-Change  Column Row Layer    Maximum-Flux-Residual          L2-NORM 
          0                 1           2             4    7     1      -0.1224706914E+00       4    7    1        -0.6419601111E+01      0.1413158567E+02
          0                 2           2             4    7     1       0.1143319687E-01       4    7    1         0.6162014862E+00      0.1517290634E+01
          0                 3           2             4    7     1      -0.1011862745E-02       4    7    1        -0.5600646834E-01      0.1406353166E+00
          0                 4           1             5    8     1      -0.7948087420E-04       5    8    1        -0.4511740936E-02      0.1124110321E-01

    ------------------------------------------------
       NWT REQUIRED            4 OUTER ITERATIONS 
       AND A TOTAL OF          7 INNER ITERATIONS.
    ------------------------------------------------

 NO OUTPUT CONTROL FOR STRESS PERIOD   20   TIME STEP   12
 
 SOLVING FOR HEAD 
                                                   Max.-Head-Change                         Max.-Flux-Residual
  Residual-Control   Outer-Iter.   Inner-Iter.     Column Row Layer    Maximum-Head-Change  Column Row Layer    Maximum-Flux-Residual          L2-NORM 
          0                 1           2             4    7     1      -0.1213696229E+00       4    7    1        -0.6363123496E+01      0.1394517610E+02
          0                 2           2             4    7     1       0.1132534292E-01       4    7    1         0.6105134803E+00      0.1500843284E+01
          0                 3           2             4    7     1      -0.1004873141E-02       4    7    1        -0.5562785972E-01      0.1394249520E+00
          0                 4           1             5    8     1      -0.8018423120E-04       5    8    1        -0.4552169346E-02      0.1132121294E-01

    ------------------------------------------------
       NWT REQUIRED            4 OUTER ITERATIONS 
       AND A TOTAL OF          7 INNER ITERATIONS.
    ------------------------------------------------

 NO OUTPUT CONTROL FOR STRESS PERIOD   20   TIME STEP   13
 
 SOLVING FOR HEAD 
                                                   Max.-Head-Change                         Max.-Flux-Residual
  Residual-Control   Outer-Iter.   Inner-Iter.     Column Row Layer    Maximum-Head-Change  Column Row Layer    Maximum-Flux-Residual          L2-NORM 
          0                 1           2             4    7     1      -0.1202565649E+00       4    7    1        -0.6305898545E+01      0.1376578820E+02
          0                 2           2             4    7     1       0.1121634114E-01       4    7    1         0.6047517400E+00      0.1485068571E+01
          0                 3           2             4    7     1      -0.9978053805E-03       4    7    1        -0.5524408930E-01      0.1382583649E+00
          0                 4           1             5    8     1      -0.8087818070E-04       5    8    1        -0.4592009261E-02      0.1140120769E-01

    ------------------------------------------------
       NWT REQUIRED            4 OUTER ITERATIONS 
       AND A TOTAL OF          7 INNER ITERATIONS.
    ------------------------------------------------

 NO OUTPUT CONTROL FOR STRESS PERIOD   20   TIME STEP   14
 
 SOLVING FOR HEAD 
                                                   Max.-Head-Change                         Max.-Flux-Residual
  Residual-Control   Outer-Iter.   Inner-Iter.     Column Row Layer    Maximum-Head-Change  Column Row Layer    Maximum-Flux-Residual          L2-NORM 
          0                 1           2             4    7     1      -0.1191340349E+00       4    7    1        -0.6248066203E+01      0.1359301590E+02
          0                 2           2             4    7     1       0.1110642746E-01       4    7    1         0.5989297785E+00      0.1469925637E+01
          0                 3           2             4    7     1      -0.9906928124E-03       4    7    1        -0.5485705667E-01      0.1371128219E+00
          0                 4           1             5    8     1      -0.8153841436E-04       5    8    1        -0.4629889209E-02      0.1147641066E-01

    ------------------------------------------------
       NWT REQUIRED            4 OUTER ITERATIONS 
       AND A TOTAL OF          7 INNER ITERATIONS.
    ------------------------------------------------

 NO OUTPUT CONTROL FOR STRESS PERIOD   20   TIME STEP   15
 
 SOLVING FOR HEAD 
                                                   Max.-Head-Change                         Max.-Flux-Residual
  Residual-Control   Outer-Iter.   Inner-Iter.     Column Row Layer    Maximum-Head-Change  Column Row Layer    Maximum-Flux-Residual          L2-NORM 
          0                 1           2             4    7     1      -0.1180055031E+00       4    7    1        -0.6189815760E+01      0.1342661429E+02
          0                 2           2             4    7     1       0.1099658792E-01       4    7    1         0.5931013303E+00      0.1455459927E+01
          0                 3           2             4    7     1      -0.9832309551E-03       4    7    1        -0.5445001934E-01      0.1359949157E+00
          0                 4           1             5    8     1      -0.8202759857E-04       5    8    1        -0.4658040182E-02      0.1153266128E-01

    ------------------------------------------------
       NWT REQUIRED            4 OUTER ITERATIONS 
       AND A TOTAL OF          7 INNER ITERATIONS.
    ------------------------------------------------

 NO OUTPUT CONTROL FOR STRESS PERIOD   20   TIME STEP   16
 
 SOLVING FOR HEAD 
                                                   Max.-Head-Change                         Max.-Flux-Residual
  Residual-Control   Outer-Iter.   Inner-Iter.     Column Row Layer    Maximum-Head-Change  Column Row Layer    Maximum-Flux-Residual          L2-NORM 
          0                 1           2             4    7     1      -0.1168712712E+00       4    7    1        -0.6131168925E+01      0.1326607645E+02
          0                 2           2             4    7     1       0.1088622106E-01       4    7    1         0.5872347074E+00      0.1441554666E+01
          0                 3           2             4    7     1      -0.9757331914E-03       4    7    1        -0.5404030945E-01      0.1349148412E+00
          0                 4           1             5    8     1      -0.8247827413E-04       5    8    1        -0.4683968079E-02      0.1158537266E-01

    ------------------------------------------------
       NWT REQUIRED            4 OUTER ITERATIONS 
       AND A TOTAL OF          7 INNER ITERATIONS.
    ------------------------------------------------

 NO OUTPUT CONTROL FOR STRESS PERIOD   20   TIME STEP   17
 
 SOLVING FOR HEAD 
                                                   Max.-Head-Change                         Max.-Flux-Residual
  Residual-Control   Outer-Iter.   Inner-Iter.     Column Row Layer    Maximum-Head-Change  Column Row Layer    Maximum-Flux-Residual          L2-NORM 
          0                 1           2             4    7     1      -0.1157333481E+00       4    7    1        -0.6072238430E+01      0.1311104976E+02
          0                 2           2             4    7     1       0.1077547782E-01       4    7    1         0.5813387956E+00      0.1428168410E+01
          0                 3           2             4    7     1      -0.9682011573E-03       4    7    1        -0.5362807224E-01      0.1338697406E+00
          0                 4           1             5    8     1      -0.8292604864E-04       5    8    1        -0.4709691942E-02      0.1163867841E-01

    ------------------------------------------------
       NWT REQUIRED            4 OUTER ITERATIONS 
       AND A TOTAL OF          7 INNER ITERATIONS.
    ------------------------------------------------

 NO OUTPUT CONTROL FOR STRESS PERIOD   20   TIME STEP   18
 
 SOLVING FOR HEAD 
                                                   Max.-Head-Change                         Max.-Flux-Residual
  Residual-Control   Outer-Iter.   Inner-Iter.     Column Row Layer    Maximum-Head-Change  Column Row Layer    Maximum-Flux-Residual          L2-NORM 
          0                 1           2             4    7     1      -0.1145932784E+00       4    7    1        -0.6013111186E+01      0.1296123561E+02
          0                 2           2             4    7     1       0.1066454394E-01       4    7    1         0.5754241903E+00      0.1415277360E+01
          0                 3           2             4    7     1      -0.9606734278E-03       4    7    1        -0.5321547990E-01      0.1328604230E+00
          0                 4           1             5    8     1      -0.8333725986E-04       5    8    1        -0.4733309439E-02      0.1168804134E-01

    ------------------------------------------------
       NWT REQUIRED            4 OUTER ITERATIONS 
       AND A TOTAL OF          7 INNER ITERATIONS.
    ------------------------------------------------

 NO OUTPUT CONTROL FOR STRESS PERIOD   20   TIME STEP   19
 
 SOLVING FOR HEAD 
                                                   Max.-Head-Change                         Max.-Flux-Residual
  Residual-Control   Outer-Iter.   Inner-Iter.     Column Row Layer    Maximum-Head-Change  Column Row Layer    Maximum-Flux-Residual          L2-NORM 
          0                 1           2             4    7     1      -0.1134525718E+00       4    7    1        -0.5953871768E+01      0.1281635212E+02
          0                 2           2             4    7     1       0.1055354845E-01       4    7    1         0.5694983927E+00      0.1402849814E+01
          0                 3           2             4    7     1      -0.9531328619E-03       4    7    1        -0.5280162702E-01      0.1318822711E+00
          0                 4           1             5    8     1      -0.8374785087E-04       5    8    1        -0.4756858106E-02      0.1173861169E-01

    ------------------------------------------------
       NWT REQUIRED            4 OUTER ITERATIONS 
       AND A TOTAL OF          7 INNER ITERATIONS.
    ------------------------------------------------

 NO OUTPUT CONTROL FOR STRESS PERIOD   20   TIME STEP   20
 
 SOLVING FOR HEAD 
                                                   Max.-Head-Change                         Max.-Flux-Residual
  Residual-Control   Outer-Iter.   Inner-Iter.     Column Row Layer    Maximum-Head-Change  Column Row Layer    Maximum-Flux-Residual          L2-NORM 
          0                 1           2             4    7     1      -0.1123124952E+00       4    7    1        -0.5894592072E+01      0.1267612635E+02
          0                 2           2             4    7     1       0.1044261459E-01       4    7    1         0.5635685898E+00      0.1390861469E+01
          0                 3           2             4    7     1      -0.9455964934E-03       4    7    1        -0.5238749360E-01      0.1309339213E+00
          0                 4           1             5    8     1      -0.8411650888E-04       5    8    1        -0.4778002361E-02      0.1178411893E-01

    ------------------------------------------------
       NWT REQUIRED            4 OUTER ITERATIONS 
       AND A TOTAL OF          7 INNER ITERATIONS.
    ------------------------------------------------

 NO OUTPUT CONTROL FOR STRESS PERIOD   20   TIME STEP   21
 
 SOLVING FOR HEAD 
                                                   Max.-Head-Change                         Max.-Flux-Residual
  Residual-Control   Outer-Iter.   Inner-Iter.     Column Row Layer    Maximum-Head-Change  Column Row Layer    Maximum-Flux-Residual          L2-NORM 
          0                 1           2             4    7     1      -0.1111746043E+00       4    7    1        -0.5835359296E+01      0.1254033382E+02
          0                 2           2             4    7     1       0.1033190249E-01       4    7    1         0.5576439757E+00      0.1379289223E+01
          0                 3           2             4    7     1      -0.9380838686E-03       4    7    1        -0.5197420001E-01      0.1300151862E+00
          0                 4           1             5    8     1      -0.8449433062E-04       5    8    1        -0.4799636733E-02      0.1183199433E-01

    ------------------------------------------------
       NWT REQUIRED            4 OUTER ITERATIONS 
       AND A TOTAL OF          7 INNER ITERATIONS.
    ------------------------------------------------

 NO OUTPUT CONTROL FOR STRESS PERIOD   20   TIME STEP   22
 
 SOLVING FOR HEAD 
                                                   Max.-Head-Change                         Max.-Flux-Residual
  Residual-Control   Outer-Iter.   Inner-Iter.     Column Row Layer    Maximum-Head-Change  Column Row Layer    Maximum-Flux-Residual          L2-NORM 
          0                 1           2             4    7     1      -0.1100399545E+00       4    7    1        -0.5776233538E+01      0.1240873654E+02
          0                 2           2             4    7     1       0.1022149704E-01       4    7    1         0.5517296044E+00      0.1368110029E+01
          0                 3           2             4    7     1      -0.9305921263E-03       4    7    1        -0.5156162329E-01      0.1291248982E+00
          0                 4           1             5    8     1      -0.8484897213E-04       5    8    1        -0.4819932745E-02      0.1187739925E-01

    ------------------------------------------------
       NWT REQUIRED            4 OUTER ITERATIONS 
       AND A TOTAL OF          7 INNER ITERATIONS.
    ------------------------------------------------

 NO OUTPUT CONTROL FOR STRESS PERIOD   20   TIME STEP   23
 
 SOLVING FOR HEAD 
                                                   Max.-Head-Change                         Max.-Flux-Residual
  Residual-Control   Outer-Iter.   Inner-Iter.     Column Row Layer    Maximum-Head-Change  Column Row Layer    Maximum-Flux-Residual          L2-NORM 
          0                 1           2             4    7     1      -0.1089096198E+00       4    7    1        -0.5717275432E+01      0.1228113103E+02
          0                 2           2             4    7     1       0.1011151156E-01       4    7    1         0.5458320142E+00      0.1357304780E+01
          0                 3           2             4    7     1      -0.9231116969E-03       4    7    1        -0.5114926742E-01      0.1282586527E+00
          0                 4           1             5    8     1      -0.8519038275E-04       5    8    1        -0.4839455684E-02      0.1192160132E-01

    ------------------------------------------------
       NWT REQUIRED            4 OUTER ITERATIONS 
       AND A TOTAL OF          7 INNER ITERATIONS.
    ------------------------------------------------

 NO OUTPUT CONTROL FOR STRESS PERIOD   20   TIME STEP   24
 
 SOLVING FOR HEAD 
                                                   Max.-Head-Change                         Max.-Flux-Residual
  Residual-Control   Outer-Iter.   Inner-Iter.     Column Row Layer    Maximum-Head-Change  Column Row Layer    Maximum-Flux-Residual          L2-NORM 
          0                 1           2             4    7     1      -0.1077845783E+00       4    7    1        -0.5658540667E+01      0.1215732322E+02
          0                 2           2             4    7     1       0.1000204117E-01       4    7    1         0.5399567721E+00      0.1346848931E+01
          0                 3           2             4    7     1      -0.9156749848E-03       4    7    1        -0.5073895262E-01      0.1274171727E+00
          0                 4           1             5    8     1      -0.8552675160E-04       5    8    1        -0.4858671063E-02      0.1196576901E-01

    ------------------------------------------------
       NWT REQUIRED            4 OUTER ITERATIONS 
       AND A TOTAL OF          7 INNER ITERATIONS.
    ------------------------------------------------

 NO OUTPUT CONTROL FOR STRESS PERIOD   20   TIME STEP   25
 
 SOLVING FOR HEAD 
                                                   Max.-Head-Change                         Max.-Flux-Residual
  Residual-Control   Outer-Iter.   Inner-Iter.     Column Row Layer    Maximum-Head-Change  Column Row Layer    Maximum-Flux-Residual          L2-NORM 
          0                 1           2             4    7     1      -0.1066658793E+00       4    7    1        -0.5600088687E+01      0.1203713564E+02
          0                 2           2             4    7     1       0.9893179024E-02       4    7    1         0.5341093440E+00      0.1336737710E+01
          0                 3           2             4    7     1      -0.9082796914E-03       4    7    1        -0.5033058470E-01      0.1266001511E+00
          0                 4           1             5    8     1      -0.8584237418E-04       5    8    1        -0.4876691596E-02      0.1200773650E-01

    ------------------------------------------------
       NWT REQUIRED            4 OUTER ITERATIONS 
       AND A TOTAL OF          7 INNER ITERATIONS.
    ------------------------------------------------

 NO OUTPUT CONTROL FOR STRESS PERIOD   20   TIME STEP   26
 
 SOLVING FOR HEAD 
                                                   Max.-Head-Change                         Max.-Flux-Residual
  Residual-Control   Outer-Iter.   Inner-Iter.     Column Row Layer    Maximum-Head-Change  Column Row Layer    Maximum-Flux-Residual          L2-NORM 
          0                 1           2             4    7     1      -0.1055540501E+00       4    7    1        -0.5541950536E+01      0.1192038592E+02
          0                 2           2             4    7     1       0.9785003043E-02       4    7    1         0.5282942633E+00      0.1326944484E+01
          0                 3           2             4    7     1      -0.9009311226E-03       4    7    1        -0.4992448100E-01      0.1258066373E+00
          0                 4           1             5    8     1      -0.8615471667E-04       5    8    1        -0.4894507550E-02      0.1205027178E-01

    ------------------------------------------------
       NWT REQUIRED            4 OUTER ITERATIONS 
       AND A TOTAL OF          7 INNER ITERATIONS.
    ------------------------------------------------

 NO OUTPUT CONTROL FOR STRESS PERIOD   20   TIME STEP   27
 
 SOLVING FOR HEAD 
                                                   Max.-Head-Change                         Max.-Flux-Residual
  Residual-Control   Outer-Iter.   Inner-Iter.     Column Row Layer    Maximum-Head-Change  Column Row Layer    Maximum-Flux-Residual          L2-NORM 
          0                 1           2             4    7     1      -0.1044501096E+00       4    7    1        -0.5484183278E+01      0.1180693612E+02
          0                 2           2             4    7     1       0.9677576783E-02       4    7    1         0.5225153275E+00      0.1317455522E+01
          0                 3           2             4    7     1      -0.8936336054E-03       4    7    1        -0.4952090737E-01      0.1250321489E+00
          0                 4           1             5    8     1      -0.8643081443E-04       5    8    1        -0.4910254653E-02      0.1208713482E-01

    ------------------------------------------------
       NWT REQUIRED            4 OUTER ITERATIONS 
       AND A TOTAL OF          7 INNER ITERATIONS.
    ------------------------------------------------

 NO OUTPUT CONTROL FOR STRESS PERIOD   20   TIME STEP   28
 
 SOLVING FOR HEAD 
                                                   Max.-Head-Change                         Max.-Flux-Residual
  Residual-Control   Outer-Iter.   Inner-Iter.     Column Row Layer    Maximum-Head-Change  Column Row Layer    Maximum-Flux-Residual          L2-NORM 
          0                 1           2             4    7     1      -0.1033546936E+00       4    7    1        -0.5426824168E+01      0.1169662299E+02
          0                 2           2             4    7     1       0.9570979847E-02       4    7    1         0.5167772143E+00      0.1308257244E+01
          0                 3           2             4    7     1      -0.8863925606E-03       4    7    1        -0.4912019124E-01      0.1242800967E+00
          0                 4           1             5    8     1      -0.8672180560E-04       5    8    1        -0.4926828677E-02      0.1212727587E-01

    ------------------------------------------------
       NWT REQUIRED            4 OUTER ITERATIONS 
       AND A TOTAL OF          7 INNER ITERATIONS.
    ------------------------------------------------

 NO OUTPUT CONTROL FOR STRESS PERIOD   20   TIME STEP   29
 
 SOLVING FOR HEAD 
                                                   Max.-Head-Change                         Max.-Flux-Residual
  Residual-Control   Outer-Iter.   Inner-Iter.     Column Row Layer    Maximum-Head-Change  Column Row Layer    Maximum-Flux-Residual          L2-NORM 
          0                 1           2             4    7     1      -0.1148088897E+00       4    7    1        -0.6024614544E+01      0.1309427512E+02
          0                 2           2             4    7     1       0.1068496776E-01       4    7    1         0.5765455446E+00      0.1352253347E+01
          0                 3           2             4    7     1      -0.9623383255E-03       4    7    1        -0.5330876423E-01      0.1300281558E+00
          0                 4           1             5    8     1      -0.8370498620E-04       5    8    1        -0.4756206456E-02      0.1170621018E-01

    ------------------------------------------------
       NWT REQUIRED            4 OUTER ITERATIONS 
       AND A TOTAL OF          7 INNER ITERATIONS.
    ------------------------------------------------

 NO OUTPUT CONTROL FOR STRESS PERIOD   20   TIME STEP   30



 STREAM LISTING     PERIOD     20   STEP       30

 LAYER ROW COL. STREAM  RCH.  FLOW INTO     FLOW TO   FLOW OUT OF   OVRLND.     DIRECT     STREAM       STREAM     STREAM     STREAM   STREAMBED  STREAMBED
                SEG.NO.  NO.  STRM. RCH.    AQUIFER    STRM. RCH.    RUNOFF     PRECIP       ET          HEAD       DEPTH      WIDTH   CONDCTNC.   GRADIENT

   1    1    1     1     1    1.6138E+01  1.9509E-01   1.5943E+01  0.000E+00  0.000E+00  0.000E+00  1.09408E+03  1.032E+00  1.075E+01  4.839E-02  1.344E+00
   1    2    2     1     2    1.5943E+01  3.0079E-01   1.5642E+01  0.000E+00  0.000E+00  0.000E+00  1.08909E+03  1.027E+00  1.067E+01  7.469E-02  1.342E+00
   1    3    3     1     3    1.5642E+01  2.5522E-01   1.5387E+01  0.000E+00  0.000E+00  0.000E+00  1.08344E+03  1.022E+00  1.058E+01  6.345E-02  1.341E+00
   1    3    4     1     4    1.5387E+01  2.3394E-01   1.5153E+01  0.000E+00  0.000E+00  0.000E+00  1.07843E+03  1.017E+00  1.049E+01  5.823E-02  1.339E+00
   1    4    5     2     1    1.3153E+01  2.9763E-01   1.2856E+01  0.000E+00  0.000E+00  0.000E+00  1.07275E+03  8.158E-01  1.200E+01  7.800E-02  1.272E+00
   1    5    6     2     2    1.2856E+01  2.2835E-01   1.2627E+01  0.000E+00  0.000E+00  0.000E+00  1.06732E+03  8.059E-01  1.200E+01  6.000E-02  1.269E+00
   1    6    6     2     3    1.2627E+01  2.2783E-01   1.2399E+01  0.000E+00  0.000E+00  0.000E+00  1.06259E+03  7.972E-01  1.200E+01  6.000E-02  1.266E+00
   1    7    6     2     4    1.2399E+01  2.2731E-01   1.2172E+01  0.000E+00  0.000E+00  0.000E+00  1.05786E+03  7.885E-01  1.200E+01  6.000E-02  1.263E+00
   1    8    6     2     5    1.2172E+01  2.2678E-01   1.1945E+01  0.000E+00  0.000E+00  0.000E+00  1.05314E+03  7.797E-01  1.200E+01  6.000E-02  1.260E+00
   1    3    5     3     1    2.0000E+00  2.8252E-01   1.7175E+00  0.000E+00  0.000E+00  0.000E+00  1.07555E+03  1.909E+00  9.636E+00  7.227E-02  1.955E+00
   1    3    6     3     2    1.7175E+00  2.4905E-01   1.4684E+00  0.000E+00  0.000E+00  0.000E+00  1.07264E+03  1.727E+00  8.909E+00  6.682E-02  1.864E+00
   1    3    7     3     3    1.4684E+00  1.9718E-01   1.2712E+00  0.000E+00  0.000E+00  0.000E+00  1.06987E+03  1.555E+00  8.218E+00  5.547E-02  1.777E+00
   1    4    8     3     4    1.2712E+00  2.2567E-01   1.0456E+00  0.000E+00  0.000E+00  0.000E+00  1.06682E+03  1.364E+00  7.455E+00  6.709E-02  1.682E+00
   1    5    8     3     5    1.0456E+00  1.5790E-01   8.8768E-01  0.000E+00  0.000E+00  0.000E+00  1.06362E+03  1.164E+00  6.655E+00  4.991E-02  1.582E+00
   1    6    8     3     6    8.8768E-01  5.5980E-02   8.3170E-01  0.000E+00  0.000E+00  0.000E+00  1.06158E+03  1.036E+00  6.145E+00  1.844E-02  1.518E+00
   1    5   10     4     1    1.0000E+01  9.0919E-02   9.9091E+00  0.000E+00  0.000E+00  0.000E+00  1.07836E+03  6.368E-01  1.000E+01  2.500E-02  1.212E+00
   1    5    9     4     2    9.9091E+00  1.8158E-01   9.7275E+00  0.000E+00  0.000E+00  0.000E+00  1.07154E+03  6.315E-01  1.000E+01  5.000E-02  1.211E+00
   1    6    8     4     3    9.7275E+00  1.2689E-01   9.6006E+00  0.000E+00  0.000E+00  0.000E+00  1.06381E+03  6.256E-01  1.000E+01  3.500E-02  1.209E+00
   1    6    8     5     1    1.0432E+01  2.2686E-01   1.0205E+01  0.000E+00  0.000E+00  0.000E+00  1.05868E+03  6.790E-01  1.542E+01  6.166E-02  1.226E+00
   1    7    7     5     2    1.0205E+01  2.7894E-01   9.9265E+00  0.000E+00  0.000E+00  0.000E+00  1.05417E+03  6.732E-01  1.519E+01  7.594E-02  1.224E+00
   1    8    7     5     3    9.9265E+00  1.9221E-01   9.7343E+00  0.000E+00  0.000E+00  0.000E+00  1.04992E+03  6.676E-01  1.497E+01  5.241E-02  1.223E+00
   1    8    6     5     4    9.7343E+00  1.3577E-01   9.5985E+00  0.000E+00  0.000E+00  0.000E+00  1.04691E+03  6.637E-01  1.482E+01  3.706E-02  1.221E+00
   1    9    6     6     1    9.5985E+00  2.2097E-01   9.3776E+00  0.000E+00  0.000E+00  0.000E+00  1.04341E+03  6.828E-01  1.200E+01  6.000E-02  1.228E+00
   1   10    7     6     2    9.3776E+00  2.2039E-01   9.1572E+00  0.000E+00  0.000E+00  0.000E+00  1.03885E+03  6.732E-01  1.200E+01  6.000E-02  1.224E+00
   1   11    7     6     3    9.1572E+00  2.1981E-01   8.9374E+00  0.000E+00  0.000E+00  0.000E+00  1.03430E+03  6.636E-01  1.200E+01  6.000E-02  1.221E+00
   1   12    7     6     4    8.9374E+00  2.1923E-01   8.7181E+00  0.000E+00  0.000E+00  0.000E+00  1.02974E+03  6.539E-01  1.200E+01  6.000E-02  1.218E+00
   1   13    7     6     5    8.7181E+00 -5.0733E-02   8.7689E+00  0.000E+00  0.000E+00  0.000E+00  1.02656E+03  6.501E-01  1.200E+01  2.400E-01 -7.046E-02
   1   14    9     7     1    1.5000E+02  1.3720E+00   1.4863E+02  0.000E+00  0.000E+00  0.000E+00  1.03987E+03  2.288E+00  5.529E+01  5.593E-01  8.177E-01
   1   13    8     7     2    1.4863E+02  1.9333E+00   1.4669E+02  0.000E+00  0.000E+00  0.000E+00  1.03478E+03  2.279E+00  5.525E+01  6.148E-01  1.048E+00
   1   13    7     7     3    1.4669E+02  1.6294E+00   1.4507E+02  0.000E+00  0.000E+00  0.000E+00  1.02969E+03  2.269E+00  5.521E+01  5.584E-01  9.727E-01
   1   13    6     8     1    1.5383E+02  9.8158E-01   1.5285E+02  0.000E+00  0.000E+00  0.000E+00  1.02472E+03  2.840E+00  4.118E+01  4.197E-01  7.796E-01
   1   13    5     8     2    1.5285E+02  2.4329E-01   1.5261E+02  0.000E+00  0.000E+00  0.000E+00  1.01846E+03  2.836E+00  4.112E+01  4.190E-01  1.935E-01
   1   13    4     8     3    1.5261E+02 -2.1843E+00   1.5479E+02  0.000E+00  0.000E+00  0.000E+00  1.01222E+03  2.843E+00  4.122E+01  4.200E+00 -1.733E-01
   1   13    3     8     4    1.5479E+02 -3.5144E+00   1.5831E+02  0.000E+00  0.000E+00  0.000E+00  1.00599E+03  2.862E+00  4.150E+01  4.229E+00 -2.770E-01
   1   13    2     8     5    1.5831E+02 -2.5494E+00   1.6086E+02  0.000E+00  0.000E+00  0.000E+00  9.99758E+02  2.883E+00  4.180E+01  4.260E+00 -1.995E-01
   1   13    1     8     6    1.6086E+02 -1.9792E+00   1.6284E+02  0.000E+00  0.000E+00  0.000E+00  9.94773E+02  2.898E+00  4.203E+01  2.570E+00 -2.568E-01
   1    8    6     9     1    1.1945E+01  0.0000E+00   1.1945E+01  0.000E+00  0.000E+00  0.000E+00  1.08127E+03  2.521E+00  4.000E+00  0.000E+00  1.840E+00
   1    8    5     9     2    1.1945E+01  0.0000E+00   1.1945E+01  0.000E+00  0.000E+00  0.000E+00  1.08077E+03  2.521E+00  4.000E+00  0.000E+00  1.840E+00





UNSATURATED ZONE PACKAGE VOLUMETRIC BUDGET FOR  TIME STEP    30 STRESS PERIOD   20
  ------------------------------------------------------------------------------



     CUMULATIVE VOLUMES      L**3       RATES FOR THIS TIME STEP      L**3/T
     ------------------                 ------------------------

           IN:                                      IN:
           ---                                      ---
        INFILTRATION =   862633123.7161          INFILTRATION =          64.1937

          OUT:                                     OUT:
          ----                                     ----
              UZF ET =   804559566.6631                UZF ET =          64.0881
        UZF RECHARGE =      175481.8973          UZF RECHARGE =       0.0000E+00

            IN - OUT =    57898075.1557              IN - OUT =           0.1056

          STORAGE:                                 STORAGE:
          --------                                 --------
      STORAGE CHANGE =    57898064.1543        STORAGE CHANGE =           0.1056

 PERCENT DISCREPANCY IS DIFFERENCE BETWEEN IN-OUT MINUS CHANGE IN STORAGE
 DIVIDED BY THE AVERAGE OF IN AND OUT TIMES 100

 PERCENT DISCREPANCY =           0.00     PERCENT DISCREPANCY =           0.00






1
  VOLUMETRIC BUDGET FOR AGRICULTURAL FIELDS AT  END OF TIME STEP   30, STRESS PERIOD  20
  ------------------------------------------------------------------------------

     CUMULATIVE VOLUMES      L**3       RATES FOR THIS TIME STEP      L**3/T
     ------------------                 ------------------------

           IN:                                      IN:
           ---                                      ---
               AG WELLS  =   303328160.0000                 AG WELLS  =          47.8407
      DIVERSION SEGMENTS =   338982368.0000        DIVERSION SEGMENTS =          11.9453
           GW IRRIGATION =           0.0000             GW IRRIGATION =           0.0000
           SW IRRIGATION =           0.0000             SW IRRIGATION =           0.0000
        SYSTEM LOSSES GW =           0.0000          SYSTEM LOSSES GW =           0.0000
        SYSTEM LOSSES SW =           0.0000          SYSTEM LOSSES SW =           0.0000

                TOTAL IN =   642310528.0000                  TOTAL IN =          59.7859

          OUT:                                     OUT:
          ----                                     ----
               AG WELLS  =           0.0000                 AG WELLS  =           0.0000
      DIVERSION SEGMENTS =           0.0000        DIVERSION SEGMENTS =           0.0000
           GW IRRIGATION =   303328160.0000             GW IRRIGATION =          47.8407
           SW IRRIGATION =   338989280.0000             SW IRRIGATION =          11.9455
        SYSTEM LOSSES GW =           0.0000          SYSTEM LOSSES GW =           0.0000
        SYSTEM LOSSES SW =           0.0000          SYSTEM LOSSES SW =           0.0000

               TOTAL OUT =   642317440.0000                 TOTAL OUT =          59.7862

                IN - OUT =       -6912.0000                  IN - OUT =      -2.3651E-04

     PERCENT DISCREPANCY =          -0.00         PERCENT DISCREPANCY =          -0.00



1
  VOLUMETRIC BUDGET FOR ENTIRE MODEL AT END OF TIME STEP   30, STRESS PERIOD  20
  ------------------------------------------------------------------------------

     CUMULATIVE VOLUMES      L**3       RATES FOR THIS TIME STEP      L**3/T
     ------------------                 ------------------------

           IN:                                      IN:
           ---                                      ---
             STORAGE     =   400401728.0000               STORAGE     =          46.6976
       CONSTANT HEAD     =           0.0000         CONSTANT HEAD     =           0.0000
     HEAD DEP BOUNDS     =    14416680.0000       HEAD DEP BOUNDS     =           0.2882
      STREAM LEAKAGE     =   589159360.0000        STREAM LEAKAGE     =          11.6345
        UZF RECHARGE     =      175481.8594          UZF RECHARGE     =           0.0000
               GW ET     =           0.0000                 GW ET     =           0.0000
     SURFACE LEAKAGE     =           0.0000       SURFACE LEAKAGE     =           0.0000
           AG WELLS      =           0.0000             AG WELLS      =           0.0000

                TOTAL IN =  1004153216.0000                  TOTAL IN =          58.6204

          OUT:                                     OUT:
          ----                                     ----
             STORAGE     =   171271728.0000               STORAGE     =           0.2140
       CONSTANT HEAD     =           0.0000         CONSTANT HEAD     =           0.0000
     HEAD DEP BOUNDS     =    14422183.0000       HEAD DEP BOUNDS     =           0.2867
      STREAM LEAKAGE     =   515102944.0000        STREAM LEAKAGE     =          10.2781
        UZF RECHARGE     =           0.0000          UZF RECHARGE     =           0.0000
               GW ET     =           0.0000                 GW ET     =           0.0000
     SURFACE LEAKAGE     =           0.0000       SURFACE LEAKAGE     =           0.0000
           AG WELLS      =   303328160.0000             AG WELLS      =          47.8407

               TOTAL OUT =  1004125056.0000                 TOTAL OUT =          58.6194

                IN - OUT =       28160.0000                  IN - OUT =       9.9564E-04

     PERCENT DISCREPANCY =           0.00         PERCENT DISCREPANCY =           0.00






         TIME SUMMARY AT END OF TIME STEP   30 IN STRESS PERIOD   20
                    SECONDS     MINUTES      HOURS       DAYS        YEARS
                    -----------------------------------------------------------
   TIME STEP LENGTH  87667.      1461.1      24.352      1.0147     2.77799E-03
 STRESS PERIOD TIME 2.63000E+06  43833.      730.56      30.440     8.33397E-02
         TOTAL TIME 5.00565E+07 8.34276E+05  13905.      579.36      1.5862    
1
1
                            STRESS PERIOD NO.   21, LENGTH =   2630000.    
                            -----------------------------------------------

                              NUMBER OF TIME STEPS =    30

                               MULTIPLIER FOR DELT =     1.000

                            INITIAL TIME STEP SIZE =   87666.66    

 REUSING NON-PARAMETER GHB CELLS FROM LAST STRESS PERIOD

      2 GHB CELLS

 REUSING STREAM SEGMENT DATA FROM LAST STRESS PERIOD



            AREAL INFILTRATION RATE
 READING ON UNIT   19 WITH FORMAT: (10F4.0)            

            1           2           3           4           5           6           7           8           9          10
 ........................................................................................................................
   1   1.2000E-09   0.000       0.000       0.000       0.000       0.000       0.000       0.000       0.000       0.000    
   2   2.1000E-09  2.0000E-09  8.0000E-10  8.5000E-09   0.000       0.000       0.000       0.000       0.000       0.000    
   3   5.0000E-10  1.1000E-09  8.8000E-09  5.5000E-09   0.000       0.000       0.000       0.000       0.000       0.000    
   4   8.5000E-09  1.1000E-09  1.1000E-09  1.1000E-09  2.0000E-09   0.000       0.000       0.000       0.000       0.000    
   5   8.5000E-09  1.1000E-09  1.1000E-09  1.1000E-09  1.1000E-09   0.000       0.000       0.000       0.000       0.000    
   6   8.5000E-09  5.2000E-09  2.1000E-09  1.1000E-09  1.5000E-09   0.000       0.000       0.000       0.000       0.000    
   7   8.5000E-09  5.2000E-09  2.1000E-09  1.2000E-09  2.0000E-09   0.000       0.000       0.000       0.000       0.000    
   8   5.0000E-10  5.2000E-09  2.1000E-09  1.2000E-09  5.0000E-09   0.000       0.000       0.000       0.000       0.000    
   9   5.0000E-10  5.2000E-09  2.1000E-09  1.2000E-09  5.0000E-09   0.000       0.000       0.000       0.000       0.000    
  10   5.0000E-10  5.2000E-09  2.1000E-09  1.2000E-09  5.8000E-09   0.000       0.000       0.000       0.000       0.000    
  11   1.0000E-10  1.1000E-09  1.1000E-09  1.2000E-09  5.0000E-09   0.000       0.000       0.000       0.000       0.000    
  12   1.1000E-09  1.1000E-09  1.1000E-09  1.1000E-09  2.0000E-09   0.000       0.000       0.000       0.000       0.000    
  13   1.1000E-09  2.2000E-09  2.2000E-09  2.1000E-09  1.0000E-09   0.000       0.000       0.000       0.000       0.000    
  14   2.0000E-10  5.5000E-09  5.5000E-09  5.2000E-09  1.0000E-09   0.000       0.000       0.000       0.000       0.000    
  15    0.000      8.8000E-09  8.8000E-09   0.000       0.000       0.000       0.000       0.000       0.000       0.000    

                  ET RATE =  3.250000E-07

 USING ET EXTINCTION DEPTH FROM PREVIOUS STRESS PERIOD. CURRENT PERIOD IS:      21

 USING EXTINCTION WATER CONTENT FROM PREVIOUS STRESS PERIOD. CURRENT PERIOD IS:      21

 USING AIR ENTRY PRESSURE FROM PREVIOUS STRESS PERIOD. CURRENT PERIOD IS:      21

 USING ROOT PRESSURE HEAD FROM PREVIOUS STRESS PERIOD. CURRENT PERIOD IS:      21

 USING ROOT ACTIVITY FROM PREVIOUS STRESS PERIOD. CURRENT PERIOD IS:      21

 PROCESSING AG STRESS PERIOD DATA

 READING AG STRESS PERIOD DATA

 READING IRRIGATION SEGMENT

 READING IRRIGATION WELL

 READING SUPPLEMENTAL WELL

 END PROCESSING AG STRESS PERIOD DATA OPTIONS
 
 SOLVING FOR HEAD 
                                                   Max.-Head-Change                         Max.-Flux-Residual
  Residual-Control   Outer-Iter.   Inner-Iter.     Column Row Layer    Maximum-Head-Change  Column Row Layer    Maximum-Flux-Residual          L2-NORM 
          0                 1           2             4    7     1      -0.8462648184E-01       4    7    1        -0.4448929285E+01      0.9535410552E+01
          0                 2           2             4    7     1       0.7749006000E-02       4    7    1         0.4189761457E+00      0.9914256962E+00
          0                 3           2             4    7     1      -0.7624531584E-03       7   13    1        -0.4232278775E-01      0.1056452369E+00
          0                 4           1             5    8     1      -0.9174779896E-04       5    8    1        -0.5211701695E-02      0.1277052575E-01

    ------------------------------------------------
       NWT REQUIRED            4 OUTER ITERATIONS 
       AND A TOTAL OF          7 INNER ITERATIONS.
    ------------------------------------------------

 NO OUTPUT CONTROL FOR STRESS PERIOD   21   TIME STEP    1
 
 SOLVING FOR HEAD 
                                                   Max.-Head-Change                         Max.-Flux-Residual
  Residual-Control   Outer-Iter.   Inner-Iter.     Column Row Layer    Maximum-Head-Change  Column Row Layer    Maximum-Flux-Residual          L2-NORM 
          0                 1           2             4    7     1      -0.8361966719E-01       4    7    1        -0.4395681080E+01      0.9459212309E+01
          0                 2           2             4    7     1       0.7640509467E-02       4    7    1         0.4130846172E+00      0.9835889912E+00
          0                 3           2             4    7     1      -0.7602165548E-03       7   13    1        -0.4222647944E-01      0.1055985020E+00
          0                 4           1             5    8     1      -0.9419347388E-04       5    8    1        -0.5349959196E-02      0.1310519602E-01

    ------------------------------------------------
       NWT REQUIRED            4 OUTER ITERATIONS 
       AND A TOTAL OF          7 INNER ITERATIONS.
    ------------------------------------------------

 NO OUTPUT CONTROL FOR STRESS PERIOD   21   TIME STEP    2
 
 SOLVING FOR HEAD 
                                                   Max.-Head-Change                         Max.-Flux-Residual
  Residual-Control   Outer-Iter.   Inner-Iter.     Column Row Layer    Maximum-Head-Change  Column Row Layer    Maximum-Flux-Residual          L2-NORM 
          0                 1           2             4    7     1      -0.8263017280E-01       4    7    1        -0.4343343731E+01      0.9384707719E+01
          0                 2           2             4    7     1       0.7533475450E-02       4    7    1         0.4072722479E+00      0.9758936748E+00
          0                 3           2             4    7     1      -0.7581746321E-03       7   13    1        -0.4213215337E-01      0.1055699873E+00
          0                 4           1             5    8     1      -0.9670276765E-04       5    8    1        -0.5491825806E-02      0.1344880805E-01

    ------------------------------------------------
       NWT REQUIRED            4 OUTER ITERATIONS 
       AND A TOTAL OF          7 INNER ITERATIONS.
    ------------------------------------------------

 NO OUTPUT CONTROL FOR STRESS PERIOD   21   TIME STEP    3
 
 SOLVING FOR HEAD 
                                                   Max.-Head-Change                         Max.-Flux-Residual
  Residual-Control   Outer-Iter.   Inner-Iter.     Column Row Layer    Maximum-Head-Change  Column Row Layer    Maximum-Flux-Residual          L2-NORM 
          0                 1           2             4    7     1      -0.7107426161E-01       4    7    1        -0.3739371050E+01      0.8133783373E+01
          0                 2           2             4   13     1      -0.4227612154E-02       4   13    1        -0.2485037656E+00      0.6034572756E+00
          0                 3           2             5    7     1      -0.2868999161E-02       4    7    1        -0.1568682198E+00      0.3712017970E+00
          0                 4           2             4    7     1      -0.1260991170E-02       4    7    1        -0.6996374021E-01      0.1534739299E+00
          0                 5           2             4    7     1      -0.6369852431E-03       4    7    1        -0.3528886500E-01      0.7946925334E-01
          0                 6           2             4    7     1      -0.3182327033E-03       4    7    1        -0.1763587762E-01      0.3946880524E-01
          0                 7           2             4    7     1      -0.1591124943E-03       4    7    1        -0.8817001832E-02      0.1975877057E-01
          0                 8           1             4    7     1      -0.7955564097E-04       4    7    1        -0.4408484384E-02      0.9876900162E-02

    ------------------------------------------------
       NWT REQUIRED            8 OUTER ITERATIONS 
       AND A TOTAL OF         15 INNER ITERATIONS.
    ------------------------------------------------

 NO OUTPUT CONTROL FOR STRESS PERIOD   21   TIME STEP    4
 
 SOLVING FOR HEAD 
                                                   Max.-Head-Change                         Max.-Flux-Residual
  Residual-Control   Outer-Iter.   Inner-Iter.     Column Row Layer    Maximum-Head-Change  Column Row Layer    Maximum-Flux-Residual          L2-NORM 
          0                 1           2             4    7     1      -0.6973968350E-01       4    7    1        -0.3669036358E+01      0.8025263800E+01
          0                 2           2             4   13     1      -0.4227989506E-02       4   13    1        -0.2485259439E+00      0.6088375906E+00
          0                 3           2             5    7     1      -0.2937263770E-02       4    7    1        -0.1609091824E+00      0.3802376453E+00
          0                 4           2             4    7     1      -0.1305547346E-02       4    7    1        -0.7243069318E-01      0.1590807553E+00
          0                 5           2             4    7     1      -0.6589236503E-03       4    7    1        -0.3650477565E-01      0.8218134315E-01
          0                 6           2             4    7     1      -0.3292200201E-03       4    7    1        -0.1824465630E-01      0.4083418677E-01
          0                 7           2             4    7     1      -0.1646096789E-03       4    7    1        -0.9121602246E-02      0.2044113645E-01
          0                 8           1             4    7     1      -0.8229542036E-04       4    7    1        -0.4560295348E-02      0.1021695226E-01

    ------------------------------------------------
       NWT REQUIRED            8 OUTER ITERATIONS 
       AND A TOTAL OF         15 INNER ITERATIONS.
    ------------------------------------------------

 NO OUTPUT CONTROL FOR STRESS PERIOD   21   TIME STEP    5
 
 SOLVING FOR HEAD 
                                                   Max.-Head-Change                         Max.-Flux-Residual
  Residual-Control   Outer-Iter.   Inner-Iter.     Column Row Layer    Maximum-Head-Change  Column Row Layer    Maximum-Flux-Residual          L2-NORM 
          0                 1           2             4    7     1      -0.6842216681E-01       4    7    1        -0.3599601118E+01      0.7918726042E+01
          0                 2           2             4   13     1      -0.4228345000E-02       4   13    1        -0.2485468694E+00      0.6166114965E+00
          0                 3           2             5    7     1      -0.3005683503E-02       4    7    1        -0.1649551295E+00      0.3892905829E+00
          0                 4           2             4    7     1      -0.1350074015E-02       4    7    1        -0.7489602760E-01      0.1646832479E+00
          0                 5           2             4    7     1      -0.6808719916E-03       4    7    1        -0.3772122246E-01      0.8489500993E-01
          0                 6           2             4    7     1      -0.3401896851E-03       4    7    1        -0.1885246058E-01      0.4219709174E-01
          0                 7           2             4    7     1      -0.1702891167E-03       4    7    1        -0.9436253160E-02      0.2114823087E-01
          0                 8           1             4    7     1      -0.8495860137E-04       4    7    1        -0.4707906928E-02      0.1054546190E-01

    ------------------------------------------------
       NWT REQUIRED            8 OUTER ITERATIONS 
       AND A TOTAL OF         15 INNER ITERATIONS.
    ------------------------------------------------

 NO OUTPUT CONTROL FOR STRESS PERIOD   21   TIME STEP    6
 
 SOLVING FOR HEAD 
                                                   Max.-Head-Change                         Max.-Flux-Residual
  Residual-Control   Outer-Iter.   Inner-Iter.     Column Row Layer    Maximum-Head-Change  Column Row Layer    Maximum-Flux-Residual          L2-NORM 
          0                 1           2             4    7     1      -0.6712189216E-01       4    7    1        -0.3531075419E+01      0.7814184356E+01
          0                 2           2             4   13     1      -0.4228687736E-02       4   13    1        -0.2485671087E+00      0.6266508345E+00
          0                 3           2             5    7     1      -0.3074132940E-02       4    7    1        -0.1689993213E+00      0.3983448737E+00
          0                 4           2             4    7     1      -0.1394550233E-02       4    7    1        -0.7735857133E-01      0.1702792703E+00
          0                 5           2             4    7     1      -0.7027792643E-03       4    7    1        -0.3893539032E-01      0.8760343167E-01
          0                 6           2             4    7     1      -0.3511610725E-03       4    7    1        -0.1946035193E-01      0.4356046136E-01
          0                 7           2             4    7     1      -0.1755882016E-03       4    7    1        -0.9729919899E-02      0.2180393436E-01
          0                 8           1             4    7     1      -0.8778430131E-04       4    7    1        -0.4864427714E-02      0.1089839402E-01

    ------------------------------------------------
       NWT REQUIRED            8 OUTER ITERATIONS 
       AND A TOTAL OF         15 INNER ITERATIONS.
    ------------------------------------------------

 NO OUTPUT CONTROL FOR STRESS PERIOD   21   TIME STEP    7
 
 SOLVING FOR HEAD 
                                                   Max.-Head-Change                         Max.-Flux-Residual
  Residual-Control   Outer-Iter.   Inner-Iter.     Column Row Layer    Maximum-Head-Change  Column Row Layer    Maximum-Flux-Residual          L2-NORM 
          0                 1           2             4    7     1      -0.6583859165E-01       4    7    1        -0.3463445585E+01      0.7711612348E+01
          0                 2           2             4   13     1      -0.4228986061E-02       4   13    1        -0.2485847770E+00      0.6388107819E+00
          0                 3           2             4    7     1      -0.3307932164E-02       4    7    1        -0.1729769785E+00      0.4073753393E+00
          0                 4           2             4    7     1      -0.1325185728E-02       5    8    1        -0.7055228509E-01      0.1714783003E+00
          0                 5           2             4    7     1      -0.6954845675E-03       4    7    1        -0.3631190028E-01      0.8873869988E-01
          0                 6           2             4    7     1      -0.3444439819E-03       5    8    1        -0.1799494253E-01      0.4406579473E-01
          0                 7           2             4    7     1      -0.1725609549E-03       4    7    1        -0.9008809597E-02      0.2206443422E-01
          0                 8           1             4    7     1      -0.8623744837E-04       4    7    1        -0.4502138822E-02      0.1102789446E-01

    ------------------------------------------------
       NWT REQUIRED            8 OUTER ITERATIONS 
       AND A TOTAL OF         15 INNER ITERATIONS.
    ------------------------------------------------

 NO OUTPUT CONTROL FOR STRESS PERIOD   21   TIME STEP    8
 
 SOLVING FOR HEAD 
                                                   Max.-Head-Change                         Max.-Flux-Residual
  Residual-Control   Outer-Iter.   Inner-Iter.     Column Row Layer    Maximum-Head-Change  Column Row Layer    Maximum-Flux-Residual          L2-NORM 
          0                 1           2             4    7     1      -0.6457198726E-01       4    7    1        -0.3396697473E+01      0.7610974712E+01
          0                 2           2             4   13     1      -0.4229311760E-02       4   13    1        -0.2486041334E+00      0.6529418918E+00
          0                 3           2             4    7     1      -0.3375262835E-02       4    7    1        -0.1764857458E+00      0.4162200365E+00
          0                 4           2             4    7     1      -0.1368435567E-02       5    8    1        -0.7278567055E-01      0.1769734050E+00
          0                 5           2             4    7     1      -0.7161327697E-03       4    7    1        -0.3738973489E-01      0.9138229765E-01
          0                 6           2             4    7     1      -0.3548931557E-03       5    8    1        -0.1854014952E-01      0.4540156171E-01
          0                 7           2             4    7     1      -0.1777639009E-03       4    7    1        -0.9280416808E-02      0.2272975332E-01
          0                 8           1             4    7     1      -0.8884108532E-04       4    7    1        -0.4638055740E-02      0.1136081041E-01

    ------------------------------------------------
       NWT REQUIRED            8 OUTER ITERATIONS 
       AND A TOTAL OF         15 INNER ITERATIONS.
    ------------------------------------------------

 NO OUTPUT CONTROL FOR STRESS PERIOD   21   TIME STEP    9
 
 SOLVING FOR HEAD 
                                                   Max.-Head-Change                         Max.-Flux-Residual
  Residual-Control   Outer-Iter.   Inner-Iter.     Column Row Layer    Maximum-Head-Change  Column Row Layer    Maximum-Flux-Residual          L2-NORM 
          0                 1           2             4    7     1      -0.6332183834E-01       4    7    1        -0.3330819063E+01      0.7512237683E+01
          0                 2           2             4   13     1      -0.4229591351E-02       4   13    1        -0.2486208453E+00      0.6688843608E+00
          0                 3           2             4    7     1      -0.3442623137E-02       4    7    1        -0.1799961447E+00      0.4250673629E+00
          0                 4           2             4    7     1      -0.1411627806E-02       5    8    1        -0.7501664532E-01      0.1824619499E+00
          0                 5           2             4    7     1      -0.7367776799E-03       4    7    1        -0.3846739491E-01      0.9402540020E-01
          0                 6           2             4    7     1      -0.3653061652E-03       5    8    1        -0.1908347279E-01      0.4673270604E-01
          0                 7           2             4    7     1      -0.1829522167E-03       4    7    1        -0.9551259347E-02      0.2339319872E-01
          0                 8           1             4    7     1      -0.9144619618E-04       4    7    1        -0.4774049137E-02      0.1169391381E-01

    ------------------------------------------------
       NWT REQUIRED            8 OUTER ITERATIONS 
       AND A TOTAL OF         15 INNER ITERATIONS.
    ------------------------------------------------

 NO OUTPUT CONTROL FOR STRESS PERIOD   21   TIME STEP   10
 
 SOLVING FOR HEAD 
                                                   Max.-Head-Change                         Max.-Flux-Residual
  Residual-Control   Outer-Iter.   Inner-Iter.     Column Row Layer    Maximum-Head-Change  Column Row Layer    Maximum-Flux-Residual          L2-NORM 
          0                 1           2             4    7     1      -0.6208771744E-01       4    7    1        -0.3265787847E+01      0.7415381316E+01
          0                 2           2             4   13     1      -0.4229844880E-02       4   13    1        -0.2486360357E+00      0.6864868131E+00
          0                 3           2             4    7     1      -0.3510038933E-02       4    7    1        -0.1835095242E+00      0.4339175146E+00
          0                 4           2             4    7     1      -0.1454732453E-02       5    8    1        -0.7724361346E-01      0.1879397807E+00
          0                 5           2             4    7     1      -0.7574040298E-03       4    7    1        -0.3954408329E-01      0.9666605952E-01
          0                 6           2             4    7     1      -0.3756845363E-03       5    8    1        -0.1962499171E-01      0.4805942290E-01
          0                 7           2             4    7     1      -0.1881440158E-03       4    7    1        -0.9822282891E-02      0.2405708665E-01
          0                 8           1             4    7     1      -0.9404183483E-04       4    7    1        -0.4909547608E-02      0.1202580487E-01

    ------------------------------------------------
       NWT REQUIRED            8 OUTER ITERATIONS 
       AND A TOTAL OF         15 INNER ITERATIONS.
    ------------------------------------------------

 NO OUTPUT CONTROL FOR STRESS PERIOD   21   TIME STEP   11
 
 SOLVING FOR HEAD 
                                                   Max.-Head-Change                         Max.-Flux-Residual
  Residual-Control   Outer-Iter.   Inner-Iter.     Column Row Layer    Maximum-Head-Change  Column Row Layer    Maximum-Flux-Residual          L2-NORM 
          0                 1           2             4    7     1      -0.6086971554E-01       4    7    1        -0.3201609881E+01      0.7320369721E+01
          0                 2           2             4   13     1      -0.4230107857E-02       4   13    1        -0.2486518648E+00      0.7055937483E+00
          0                 3           2             4    7     1      -0.3577480984E-02       4    7    1        -0.1870243711E+00      0.4427698571E+00
          0                 4           2             4    7     1      -0.1497752429E-02       5    8    1        -0.7946672682E-01      0.1934076627E+00
          0                 5           2             4    7     1      -0.7779658550E-03       4    7    1        -0.4061740062E-01      0.9929839299E-01
          0                 6           2             4    7     1      -0.3860785330E-03       5    8    1        -0.2016733044E-01      0.4938814054E-01
          0                 7           2             4    7     1      -0.1933251387E-03       4    7    1        -0.1009274819E-01      0.2471960666E-01
          0                 8           1             4    7     1      -0.9664768426E-04       4    7    1        -0.5045578710E-02      0.1235900081E-01

    ------------------------------------------------
       NWT REQUIRED            8 OUTER ITERATIONS 
       AND A TOTAL OF         15 INNER ITERATIONS.
    ------------------------------------------------

 NO OUTPUT CONTROL FOR STRESS PERIOD   21   TIME STEP   12
 
 SOLVING FOR HEAD 
                                                   Max.-Head-Change                         Max.-Flux-Residual
  Residual-Control   Outer-Iter.   Inner-Iter.     Column Row Layer    Maximum-Head-Change  Column Row Layer    Maximum-Flux-Residual          L2-NORM 
          0                 1           2             4    7     1      -0.5966720489E-01       4    7    1        -0.3138251515E+01      0.7227189755E+01
          0                 2           2             4   13     1      -0.4230328470E-02       4   13    1        -0.2486652682E+00      0.7260602480E+00
          0                 3           2             4    7     1      -0.3644970410E-02       4    7    1        -0.1905417800E+00      0.4516247193E+00
          0                 4           2             4    7     1      -0.1540694752E-02       5    8    1        -0.8168630909E-01      0.1988661817E+00
          0                 5           2             4    7     1      -0.7985172557E-03       4    7    1        -0.4169017126E-01      0.1019293236E+00
          0                 6           2             4    7     1      -0.3964462091E-03       5    8    1        -0.2070829879E-01      0.5071349454E-01
          0                 7           2             4    7     1      -0.1984997802E-03       4    7    1        -0.1036287429E-01      0.2538129510E-01
          0                 8           1             4    7     1      -0.9923592388E-04       4    7    1        -0.5180690063E-02      0.1268994385E-01

    ------------------------------------------------
       NWT REQUIRED            8 OUTER ITERATIONS 
       AND A TOTAL OF         15 INNER ITERATIONS.
    ------------------------------------------------

 NO OUTPUT CONTROL FOR STRESS PERIOD   21   TIME STEP   13
 
 SOLVING FOR HEAD 
                                                   Max.-Head-Change                         Max.-Flux-Residual
  Residual-Control   Outer-Iter.   Inner-Iter.     Column Row Layer    Maximum-Head-Change  Column Row Layer    Maximum-Flux-Residual          L2-NORM 
          0                 1           2             4    7     1      -0.5848003482E-01       4    7    1        -0.3075705398E+01      0.7135802622E+01
          0                 2           2             4   13     1      -0.4230558104E-02       4   13    1        -0.2486792000E+00      0.7477531297E+00
          0                 3           2             4    7     1      -0.3712478297E-02       4    7    1        -0.1940602467E+00      0.4604798067E+00
          0                 4           2             4    7     1      -0.1583562311E-02       5    8    1        -0.8390251497E-01      0.2043158685E+00
          0                 5           2             4    7     1      -0.8190396734E-03       4    7    1        -0.4276142646E-01      0.1045564771E+00
          0                 6           2             4    7     1      -0.4067894207E-03       5    8    1        -0.2124799362E-01      0.5203572232E-01
          0                 7           2             4    7     1      -0.2036677522E-03       4    7    1        -0.1063265142E-01      0.2604212821E-01
          0                 8           1             4    7     1      -0.1018248408E-03       4    7    1        -0.5315836344E-02      0.1302097249E-01
          0                 9           1             4    7     1      -0.5090418899E-04       4    7    1        -0.2657490271E-02      0.6509327503E-02

    ------------------------------------------------
       NWT REQUIRED            9 OUTER ITERATIONS 
       AND A TOTAL OF         16 INNER ITERATIONS.
    ------------------------------------------------

 NO OUTPUT CONTROL FOR STRESS PERIOD   21   TIME STEP   14
 
 SOLVING FOR HEAD 
                                                   Max.-Head-Change                         Max.-Flux-Residual
  Residual-Control   Outer-Iter.   Inner-Iter.     Column Row Layer    Maximum-Head-Change  Column Row Layer    Maximum-Flux-Residual          L2-NORM 
          0                 1           2             4    7     1      -0.5729370219E-01       4    7    1        -0.3013215625E+01      0.7044773840E+01
          0                 2           2             5    8     1      -0.4450027750E-02       4   13    1        -0.2486906224E+00      0.7712101366E+00
          0                 3           2             4    7     1      -0.3782673735E-02       4    7    1        -0.1977191260E+00      0.4696717948E+00
          0                 4           2             4    7     1      -0.1627823614E-02       5    8    1        -0.8619204152E-01      0.2099444881E+00
          0                 5           2             4    7     1      -0.8402722347E-03       4    7    1        -0.4386975296E-01      0.1072743617E+00
          0                 6           2             4    7     1      -0.4174909438E-03       5    8    1        -0.2180639750E-01      0.5340377195E-01
          0                 7           2             4    7     1      -0.2090008555E-03       4    7    1        -0.1091104850E-01      0.2672407454E-01
          0                 8           1             4    7     1      -0.1044794576E-03       4    7    1        -0.5454412112E-02      0.1336040152E-01
          0                 9           1             4    7     1      -0.5224639152E-04       4    7    1        -0.2727555692E-02      0.6680948454E-02

    ------------------------------------------------
       NWT REQUIRED            9 OUTER ITERATIONS 
       AND A TOTAL OF         16 INNER ITERATIONS.
    ------------------------------------------------

 NO OUTPUT CONTROL FOR STRESS PERIOD   21   TIME STEP   15
 
 SOLVING FOR HEAD 
                                                   Max.-Head-Change                         Max.-Flux-Residual
  Residual-Control   Outer-Iter.   Inner-Iter.     Column Row Layer    Maximum-Head-Change  Column Row Layer    Maximum-Flux-Residual          L2-NORM 
          0                 1           2             4    7     1      -0.5612101325E-01       4    7    1        -0.2951449774E+01      0.6955416439E+01
          0                 2           2             5    8     1      -0.4727017826E-02       5    8    1        -0.2590581323E+00      0.7957679347E+00
          0                 3           2             4    7     1      -0.3853113626E-02       4    7    1        -0.2013908644E+00      0.4788921501E+00
          0                 4           2             4    7     1      -0.1672133695E-02       5    8    1        -0.8848459167E-01      0.2155799965E+00
          0                 5           2             4    7     1      -0.8615091283E-03       4    7    1        -0.4497830329E-01      0.1099927310E+00
          0                 6           2             4    7     1      -0.4282103392E-03       5    8    1        -0.2236573764E-01      0.5477410916E-01
          0                 7           2             4    7     1      -0.2143687257E-03       4    7    1        -0.1119125981E-01      0.2741046417E-01
          0                 8           1             4    7     1      -0.1071397411E-03       4    7    1        -0.5593283316E-02      0.1370055425E-01
          0                 9           1             4    7     1      -0.5358803243E-04       4    7    1        -0.2797591592E-02      0.6852497169E-02

    ------------------------------------------------
       NWT REQUIRED            9 OUTER ITERATIONS 
       AND A TOTAL OF         16 INNER ITERATIONS.
    ------------------------------------------------

 NO OUTPUT CONTROL FOR STRESS PERIOD   21   TIME STEP   16
 
 SOLVING FOR HEAD 
                                                   Max.-Head-Change                         Max.-Flux-Residual
  Residual-Control   Outer-Iter.   Inner-Iter.     Column Row Layer    Maximum-Head-Change  Column Row Layer    Maximum-Flux-Residual          L2-NORM 
          0                 1           2             4    7     1      -0.5496230752E-01       4    7    1        -0.2890424963E+01      0.6867784281E+01
          0                 2           2             5    8     1      -0.5003411416E-02       5    8    1        -0.2738287054E+00      0.8212780781E+00
          0                 3           2             4    7     1      -0.3923640608E-02       4    7    1        -0.2050672408E+00      0.4881206542E+00
          0                 4           2             4    7     1      -0.1716416951E-02       5    8    1        -0.9077621144E-01      0.2212126942E+00
          0                 5           2             4    7     1      -0.8827396456E-03       4    7    1        -0.4608651838E-01      0.1127102179E+00
          0                 6           2             4    7     1      -0.4389212761E-03       5    8    1        -0.2292463934E-01      0.5614336662E-01
          0                 7           2             4    7     1      -0.2197100595E-03       4    7    1        -0.1147008494E-01      0.2809345768E-01
          0                 8           1             4    7     1      -0.1098209558E-03       4    7    1        -0.5733246798E-02      0.1404338249E-01
          0                 9           1             4    7     1      -0.5491845010E-04       4    7    1        -0.2867041364E-02      0.7022610027E-02

    ------------------------------------------------
       NWT REQUIRED            9 OUTER ITERATIONS 
       AND A TOTAL OF         16 INNER ITERATIONS.
    ------------------------------------------------

 NO OUTPUT CONTROL FOR STRESS PERIOD   21   TIME STEP   17
 
 SOLVING FOR HEAD 
                                                   Max.-Head-Change                         Max.-Flux-Residual
  Residual-Control   Outer-Iter.   Inner-Iter.     Column Row Layer    Maximum-Head-Change  Column Row Layer    Maximum-Flux-Residual          L2-NORM 
          0                 1           2             4    7     1      -0.4328179278E-01       4    7    1        -0.2280113380E+01      0.5823006404E+01
          0                 2           2             5    8     1      -0.1250041697E-01       5    8    1        -0.6753326167E+00      0.1652872199E+01
          0                 3           2             4    7     1      -0.5343094272E-02       4    7    1        -0.2791647455E+00      0.6689219760E+00
          0                 4           2             4    7     1      -0.2671029720E-02       5    8    1        -0.1405907966E+00      0.3432451592E+00
          0                 5           2             4    7     1      -0.1335740120E-02       4    7    1        -0.6973541742E-01      0.1706394256E+00
          0                 6           2             4    7     1      -0.6679114760E-03       5    8    1        -0.3487835938E-01      0.8542476838E-01
          0                 7           2             4    7     1      -0.3339378966E-03       4    7    1        -0.1743336488E-01      0.4270014397E-01
          0                 8           2             4    7     1      -0.1669844332E-03       4    7    1        -0.8717474426E-02      0.2135304716E-01
          0                 9           1             4    7     1      -0.8348153506E-04       4    7    1        -0.4358181175E-02      0.1067505812E-01

    ------------------------------------------------
       NWT REQUIRED            9 OUTER ITERATIONS 
       AND A TOTAL OF         17 INNER ITERATIONS.
    ------------------------------------------------

 NO OUTPUT CONTROL FOR STRESS PERIOD   21   TIME STEP   18
 
 SOLVING FOR HEAD 
                                                   Max.-Head-Change                         Max.-Flux-Residual
  Residual-Control   Outer-Iter.   Inner-Iter.     Column Row Layer    Maximum-Head-Change  Column Row Layer    Maximum-Flux-Residual          L2-NORM 
          0                 1           2             4    7     1      -0.4249460409E-01       4    7    1        -0.2238506357E+01      0.5780568567E+01
          0                 2           2             5    8     1      -0.1257698810E-01       5    8    1        -0.6794015413E+00      0.1664114312E+01
          0                 3           2             4    7     1      -0.5346736612E-02       4    7    1        -0.2793494395E+00      0.6696594814E+00
          0                 4           2             4    7     1      -0.2678206798E-02       5    8    1        -0.1409461077E+00      0.3441345273E+00
          0                 5           2             4    7     1      -0.1338797637E-02       4    7    1        -0.6989486092E-01      0.1710328501E+00
          0                 6           2             4    7     1      -0.6694887698E-03       5    8    1        -0.3496044372E-01      0.8562602902E-01
          0                 7           2             4    7     1      -0.3347308235E-03       4    7    1        -0.1747472738E-01      0.4280148754E-01
          0                 8           2             4    7     1      -0.1673622012E-03       4    7    1        -0.8737179936E-02      0.2140131160E-01
          0                 9           1             4    7     1      -0.8369055648E-04       4    7    1        -0.4369085177E-02      0.1070176711E-01

    ------------------------------------------------
       NWT REQUIRED            9 OUTER ITERATIONS 
       AND A TOTAL OF         17 INNER ITERATIONS.
    ------------------------------------------------

 NO OUTPUT CONTROL FOR STRESS PERIOD   21   TIME STEP   19
 
 SOLVING FOR HEAD 
                                                   Max.-Head-Change                         Max.-Flux-Residual
  Residual-Control   Outer-Iter.   Inner-Iter.     Column Row Layer    Maximum-Head-Change  Column Row Layer    Maximum-Flux-Residual          L2-NORM 
          0                 1           2             4    7     1      -0.4171980014E-01       4    7    1        -0.2197557198E+01      0.5739218134E+01
          0                 2           2             5    8     1      -0.1265369245E-01       5    8    1        -0.6834782553E+00      0.1675298027E+01
          0                 3           2             4    7     1      -0.5350549318E-02       4    7    1        -0.2795431377E+00      0.6704062882E+00
          0                 4           2             4    7     1      -0.2685421606E-02       5    8    1        -0.1413038343E+00      0.3450293025E+00
          0                 5           2             4    7     1      -0.1341878763E-02       4    7    1        -0.7005553871E-01      0.1714292377E+00
          0                 6           2             4    7     1      -0.6710819605E-03       5    8    1        -0.3504336281E-01      0.8582932934E-01
          0                 7           2             4    7     1      -0.3355312900E-03       4    7    1        -0.1751648369E-01      0.4290379511E-01
          0                 8           2             4    7     1      -0.1677757483E-03       4    7    1        -0.8758753417E-02      0.2145415164E-01
          0                 9           1             4    7     1      -0.8387773058E-04       4    7    1        -0.4378848704E-02      0.1072568247E-01

    ------------------------------------------------
       NWT REQUIRED            9 OUTER ITERATIONS 
       AND A TOTAL OF         17 INNER ITERATIONS.
    ------------------------------------------------

 NO OUTPUT CONTROL FOR STRESS PERIOD   21   TIME STEP   20
 
 SOLVING FOR HEAD 
                                                   Max.-Head-Change                         Max.-Flux-Residual
  Residual-Control   Outer-Iter.   Inner-Iter.     Column Row Layer    Maximum-Head-Change  Column Row Layer    Maximum-Flux-Residual          L2-NORM 
          0                 1           2             4    7     1      -0.4095786541E-01       4    7    1        -0.2157290936E+01      0.5698985793E+01
          0                 2           2             5    8     1      -0.1272997100E-01       5    8    1        -0.6875327348E+00      0.1686401950E+01
          0                 3           2             4    7     1      -0.5354448641E-02       4    7    1        -0.2797414656E+00      0.6711616045E+00
          0                 4           2             4    7     1      -0.2692618581E-02       5    8    1        -0.1416610537E+00      0.3459223608E+00
          0                 5           2             4    7     1      -0.1344952521E-02       4    7    1        -0.7021583360E-01      0.1718246279E+00
          0                 6           2             4    7     1      -0.6726667453E-03       5    8    1        -0.3512584769E-01      0.8603156141E-01
          0                 7           2             4    7     1      -0.3363234590E-03       4    7    1        -0.1755780703E-01      0.4300504152E-01
          0                 8           2             4    7     1      -0.1681535873E-03       4    7    1        -0.8778462843E-02      0.2150242579E-01
          0                 9           1             4    7     1      -0.8407760895E-04       4    7    1        -0.4389275481E-02      0.1075122248E-01

    ------------------------------------------------
       NWT REQUIRED            9 OUTER ITERATIONS 
       AND A TOTAL OF         17 INNER ITERATIONS.
    ------------------------------------------------

 NO OUTPUT CONTROL FOR STRESS PERIOD   21   TIME STEP   21
 
 SOLVING FOR HEAD 
                                                   Max.-Head-Change                         Max.-Flux-Residual
  Residual-Control   Outer-Iter.   Inner-Iter.     Column Row Layer    Maximum-Head-Change  Column Row Layer    Maximum-Flux-Residual          L2-NORM 
          0                 1           2             4    7     1      -0.4020838714E-01       4    7    1        -0.2117685646E+01      0.5659842594E+01
          0                 2           2             5    8     1      -0.1280575602E-01       5    8    1        -0.6915612979E+00      0.1697416535E+01
          0                 3           2             4    7     1      -0.5358456028E-02       4    7    1        -0.2799455391E+00      0.6719258585E+00
          0                 4           2             4    7     1      -0.2699768181E-02       5    8    1        -0.1420162034E+00      0.3468099280E+00
          0                 5           2             4    7     1      -0.1348030999E-02       4    7    1        -0.7037637653E-01      0.1722205696E+00
          0                 6           2             4    7     1      -0.6742510499E-03       5    8    1        -0.3520831188E-01      0.8623373838E-01
          0                 7           2             4    7     1      -0.3371156718E-03       4    7    1        -0.1759913284E-01      0.4310629348E-01
          0                 8           2             4    7     1      -0.1685314194E-03       4    7    1        -0.8798172010E-02      0.2155069940E-01
          0                 9           1             4    7     1      -0.8429575430E-04       4    7    1        -0.4400655967E-02      0.1077909861E-01

    ------------------------------------------------
       NWT REQUIRED            9 OUTER ITERATIONS 
       AND A TOTAL OF         17 INNER ITERATIONS.
    ------------------------------------------------

 NO OUTPUT CONTROL FOR STRESS PERIOD   21   TIME STEP   22
 
 SOLVING FOR HEAD 
                                                   Max.-Head-Change                         Max.-Flux-Residual
  Residual-Control   Outer-Iter.   Inner-Iter.     Column Row Layer    Maximum-Head-Change  Column Row Layer    Maximum-Flux-Residual          L2-NORM 
          0                 1           2             4    7     1      -0.3947109289E-01       4    7    1        -0.2078726732E+01      0.5621760924E+01
          0                 2           2             5    8     1      -0.1288107343E-01       5    8    1        -0.6955652982E+00      0.1708333971E+01
          0                 3           2             4    7     1      -0.5362519434E-02       4    7    1        -0.2801526374E+00      0.6726918929E+00
          0                 4           2             4    7     1      -0.2706930412E-02       5    8    1        -0.1423723962E+00      0.3476996304E+00
          0                 5           2             4    7     1      -0.1351089929E-02       4    7    1        -0.7053590059E-01      0.1726139614E+00
          0                 6           2             4    7     1      -0.6758373010E-03       5    8    1        -0.3529088192E-01      0.8643617037E-01
          0                 7           2             4    7     1      -0.3378894171E-03       4    7    1        -0.1763949476E-01      0.4320518386E-01
          0                 8           2             4    7     1      -0.1689476322E-03       4    7    1        -0.8819884941E-02      0.2160388118E-01
          0                 9           1             4    7     1      -0.8447352473E-04       4    7    1        -0.4409928714E-02      0.1080181291E-01

    ------------------------------------------------
       NWT REQUIRED            9 OUTER ITERATIONS 
       AND A TOTAL OF         17 INNER ITERATIONS.
    ------------------------------------------------

 NO OUTPUT CONTROL FOR STRESS PERIOD   21   TIME STEP   23
 
 SOLVING FOR HEAD 
                                                   Max.-Head-Change                         Max.-Flux-Residual
  Residual-Control   Outer-Iter.   Inner-Iter.     Column Row Layer    Maximum-Head-Change  Column Row Layer    Maximum-Flux-Residual          L2-NORM 
          0                 1           2             4    7     1      -0.3874595522E-01       4    7    1        -0.2040413197E+01      0.5584720336E+01
          0                 2           2             5    8     1      -0.1295594220E-01       5    8    1        -0.6995457646E+00      0.1719159239E+01
          0                 3           2             4    7     1      -0.5366704346E-02       4    7    1        -0.2803661842E+00      0.6734679806E+00
          0                 4           2             4    7     1      -0.2714053056E-02       5    8    1        -0.1427269245E+00      0.3485848159E+00
          0                 5           2             4    7     1      -0.1354125398E-02       4    7    1        -0.7069420156E-01      0.1730043006E+00
          0                 6           2             4    7     1      -0.6774258888E-03       5    8    1        -0.3537357837E-01      0.8663890765E-01
          0                 7           2             4    7     1      -0.3386720588E-03       4    7    1        -0.1768032134E-01      0.4330521176E-01
          0                 8           2             4    7     1      -0.1693446856E-03       4    7    1        -0.8840597737E-02      0.2165461328E-01
          0                 9           1             4    7     1      -0.8467147836E-04       4    7    1        -0.4420255149E-02      0.1082710595E-01

    ------------------------------------------------
       NWT REQUIRED            9 OUTER ITERATIONS 
       AND A TOTAL OF         17 INNER ITERATIONS.
    ------------------------------------------------

 NO OUTPUT CONTROL FOR STRESS PERIOD   21   TIME STEP   24
 
 SOLVING FOR HEAD 
                                                   Max.-Head-Change                         Max.-Flux-Residual
  Residual-Control   Outer-Iter.   Inner-Iter.     Column Row Layer    Maximum-Head-Change  Column Row Layer    Maximum-Flux-Residual          L2-NORM 
          0                 1           2             4    7     1      -0.3803254335E-01       4    7    1        -0.2002722251E+01      0.5548675856E+01
          0                 2           2             5    8     1      -0.1303038129E-01       5    8    1        -0.7035036465E+00      0.1729898420E+01
          0                 3           2             4    7     1      -0.5370976319E-02       4    7    1        -0.2805843779E+00      0.6742501730E+00
          0                 4           2             4    7     1      -0.2721139560E-02       5    8    1        -0.1430799407E+00      0.3494659088E+00
          0                 5           2             4    7     1      -0.1357191867E-02       4    7    1        -0.7085412248E-01      0.1733985536E+00
          0                 6           2             4    7     1      -0.6789931007E-03       5    6    1        -0.3545516437E-01      0.8683891752E-01
          0                 7           2             4    7     1      -0.3394477004E-03       4    7    1        -0.1772078262E-01      0.4340434442E-01
          0                 8           2             4    7     1      -0.1697424361E-03       4    7    1        -0.8861347017E-02      0.2170543480E-01
          0                 9           1             4    7     1      -0.8486022666E-04       4    7    1        -0.4430101108E-02      0.1085122323E-01

    ------------------------------------------------
       NWT REQUIRED            9 OUTER ITERATIONS 
       AND A TOTAL OF         17 INNER ITERATIONS.
    ------------------------------------------------

 NO OUTPUT CONTROL FOR STRESS PERIOD   21   TIME STEP   25
 
 SOLVING FOR HEAD 
                                                   Max.-Head-Change                         Max.-Flux-Residual
  Residual-Control   Outer-Iter.   Inner-Iter.     Column Row Layer    Maximum-Head-Change  Column Row Layer    Maximum-Flux-Residual          L2-NORM 
          0                 1           2             4    7     1      -0.3733075886E-01       4    7    1        -0.1965648495E+01      0.5513617979E+01
          0                 2           2             5    8     1      -0.1310436680E-01       5    8    1        -0.7074376557E+00      0.1740547632E+01
          0                 3           2             4    7     1      -0.5375309704E-02       4    7    1        -0.2808058774E+00      0.6750351406E+00
          0                 4           2             4    7     1      -0.2728219888E-02       5    8    1        -0.1434330059E+00      0.3503467305E+00
          0                 5           2             4    7     1      -0.1360231535E-02       4    7    1        -0.7101264585E-01      0.1737893301E+00
          0                 6           2             4    7     1      -0.6805629841E-03       5    6    1        -0.3553689689E-01      0.8703927508E-01
          0                 7           2             4    7     1      -0.3402504721E-03       4    7    1        -0.1776266045E-01      0.4350694630E-01
          0                 8           2             4    7     1      -0.1701192046E-03       4    7    1        -0.8881001005E-02      0.2175357340E-01
          0                 9           1             4    7     1      -0.8506020582E-04       4    7    1        -0.4440533405E-02      0.1087677675E-01

    ------------------------------------------------
       NWT REQUIRED            9 OUTER ITERATIONS 
       AND A TOTAL OF         17 INNER ITERATIONS.
    ------------------------------------------------

 NO OUTPUT CONTROL FOR STRESS PERIOD   21   TIME STEP   26
 
 SOLVING FOR HEAD 
                                                   Max.-Head-Change                         Max.-Flux-Residual
  Residual-Control   Outer-Iter.   Inner-Iter.     Column Row Layer    Maximum-Head-Change  Column Row Layer    Maximum-Flux-Residual          L2-NORM 
          0                 1           2             4    7     1      -0.3664002314E-01       4    7    1        -0.1929161195E+01      0.5479515695E+01
          0                 2           2             5    8     1      -0.1317790382E-01       5    8    1        -0.7113480114E+00      0.1751112621E+01
          0                 3           2             4    7     1      -0.5379734344E-02       4    7    1        -0.2810322350E+00      0.6758267831E+00
          0                 4           2             4    7     1      -0.2735254525E-02       5    8    1        -0.1437840236E+00      0.3512221800E+00
          0                 5           2             4    7     1      -0.1363303158E-02       4    7    1        -0.7117283895E-01      0.1741841467E+00
          0                 6           2             4    7     1      -0.6821205302E-03       5    6    1        -0.3561798895E-01      0.8723806060E-01
          0                 7           2             4    7     1      -0.3410179381E-03       4    7    1        -0.1780269531E-01      0.4360503342E-01
          0                 8           2             4    7     1      -0.1705177687E-03       4    7    1        -0.8901792951E-02      0.2180449951E-01
          0                 9           1             4    7     1      -0.8526713957E-04       4    7    1        -0.4451328792E-02      0.1090321958E-01

    ------------------------------------------------
       NWT REQUIRED            9 OUTER ITERATIONS 
       AND A TOTAL OF         17 INNER ITERATIONS.
    ------------------------------------------------

 NO OUTPUT CONTROL FOR STRESS PERIOD   21   TIME STEP   27
 
 SOLVING FOR HEAD 
                                                   Max.-Head-Change                         Max.-Flux-Residual
  Residual-Control   Outer-Iter.   Inner-Iter.     Column Row Layer    Maximum-Head-Change  Column Row Layer    Maximum-Flux-Residual          L2-NORM 
          0                 1           2             4    7     1      -0.3596051393E-01       4    7    1        -0.1893270047E+01      0.5446350531E+01
          0                 2           2             5    8     1      -0.1325100281E-01       5    8    1        -0.7152352722E+00      0.1761591399E+01
          0                 3           2             4    7     1      -0.5384243791E-02       4    7    1        -0.2812631188E+00      0.6766247234E+00
          0                 4           2             4    7     1      -0.2742289781E-02       5    8    1        -0.1441354319E+00      0.3520982309E+00
          0                 5           2             4    7     1      -0.1366319899E-02       4    7    1        -0.7133016852E-01      0.1745718972E+00
          0                 6           2             4    7     1      -0.6837018244E-03       5    6    1        -0.3570032432E-01      0.8743988883E-01
          0                 7           2             4    7     1      -0.3417921587E-03       4    7    1        -0.1784308300E-01      0.4370398423E-01
          0                 8           2             4    7     1      -0.1709156560E-03       4    7    1        -0.8922549627E-02      0.2185533928E-01
          0                 9           1             4    7     1      -0.8543760338E-04       4    7    1        -0.4460220324E-02      0.1092499897E-01

    ------------------------------------------------
       NWT REQUIRED            9 OUTER ITERATIONS 
       AND A TOTAL OF         17 INNER ITERATIONS.
    ------------------------------------------------

 NO OUTPUT CONTROL FOR STRESS PERIOD   21   TIME STEP   28
 
 SOLVING FOR HEAD 
                                                   Max.-Head-Change                         Max.-Flux-Residual
  Residual-Control   Outer-Iter.   Inner-Iter.     Column Row Layer    Maximum-Head-Change  Column Row Layer    Maximum-Flux-Residual          L2-NORM 
          0                 1           2             4    7     1      -0.3529167869E-01       4    7    1        -0.1857945533E+01      0.5414089501E+01
          0                 2           2             5    8     1      -0.1332369881E-01       5    8    1        -0.7191013217E+00      0.1771991401E+01
          0                 3           2             4    7     1      -0.5388820650E-02       4    7    1        -0.2814976137E+00      0.6774264054E+00
          0                 4           2             4    7     1      -0.2749290864E-02       5    8    1        -0.1444853894E+00      0.3529703746E+00
          0                 5           2             4    7     1      -0.1369349176E-02       4    7    1        -0.7148815401E-01      0.1749612058E+00
          0                 6           2             4    7     1      -0.6852635898E-03       5    6    1        -0.3578164364E-01      0.8763922526E-01
          0                 7           2             4    7     1      -0.3425774626E-03       4    7    1        -0.1788404945E-01      0.4380435225E-01
          0                 8           2             4    7     1      -0.1712941645E-03       4    7    1        -0.8942294737E-02      0.2190370132E-01
          0                 9           1             4    7     1      -0.8564654039E-04       4    7    1        -0.4471120379E-02      0.1095169825E-01

    ------------------------------------------------
       NWT REQUIRED            9 OUTER ITERATIONS 
       AND A TOTAL OF         17 INNER ITERATIONS.
    ------------------------------------------------

 NO OUTPUT CONTROL FOR STRESS PERIOD   21   TIME STEP   29
 
 SOLVING FOR HEAD 
                                                   Max.-Head-Change                         Max.-Flux-Residual
  Residual-Control   Outer-Iter.   Inner-Iter.     Column Row Layer    Maximum-Head-Change  Column Row Layer    Maximum-Flux-Residual          L2-NORM 
          0                 1           2             4    7     1      -0.3463327089E-01       4    7    1        -0.1823175193E+01      0.5382697680E+01
          0                 2           2             5    8     1      -0.1339618000E-01       5    8    1        -0.7229561702E+00      0.1782336859E+01
          0                 3           2             4    7     1      -0.5393472502E-02       4    7    1        -0.2817361200E+00      0.6782329826E+00
          0                 4           2             4    7     1      -0.2756302684E-02       5    8    1        -0.1448362376E+00      0.3538443753E+00
          0                 5           2             4    7     1      -0.1372377364E-02       4    7    1        -0.7164608418E-01      0.1753503286E+00
          0                 6           2             4    7     1      -0.6868254560E-03       5    6    1        -0.3586297166E-01      0.8783858026E-01
          0                 7           2             4    7     1      -0.3433536183E-03       4    7    1        -0.1792453851E-01      0.4390355043E-01
          0                 8           2             4    7     1      -0.1716827205E-03       4    7    1        -0.8962564434E-02      0.2195334831E-01
          0                 9           1             4    7     1      -0.8583620310E-04       4    7    1        -0.4481014277E-02      0.1097593291E-01

    ------------------------------------------------
       NWT REQUIRED            9 OUTER ITERATIONS 
       AND A TOTAL OF         17 INNER ITERATIONS.
    ------------------------------------------------

 NO OUTPUT CONTROL FOR STRESS PERIOD   21   TIME STEP   30



 STREAM LISTING     PERIOD     21   STEP       30

 LAYER ROW COL. STREAM  RCH.  FLOW INTO     FLOW TO   FLOW OUT OF   OVRLND.     DIRECT     STREAM       STREAM     STREAM     STREAM   STREAMBED  STREAMBED
                SEG.NO.  NO.  STRM. RCH.    AQUIFER    STRM. RCH.    RUNOFF     PRECIP       ET          HEAD       DEPTH      WIDTH   CONDCTNC.   GRADIENT

   1    1    1     1     1    1.3875E+01  1.7894E-01   1.3696E+01  0.000E+00  0.000E+00  0.000E+00  1.09404E+03  9.877E-01  9.972E+00  4.487E-02  1.329E+00
   1    2    2     1     2    1.3696E+01  2.7574E-01   1.3421E+01  0.000E+00  0.000E+00  0.000E+00  1.08904E+03  9.829E-01  9.890E+00  6.923E-02  1.328E+00
   1    3    3     1     3    1.3421E+01  2.3381E-01   1.3187E+01  0.000E+00  0.000E+00  0.000E+00  1.08340E+03  9.775E-01  9.797E+00  5.878E-02  1.326E+00
   1    3    4     1     4    1.3187E+01  2.1419E-01   1.2973E+01  0.000E+00  0.000E+00  0.000E+00  1.07838E+03  9.727E-01  9.715E+00  5.392E-02  1.324E+00
   1    4    5     2     1    1.0973E+01  2.9101E-01   1.0682E+01  0.000E+00  0.000E+00  0.000E+00  1.07266E+03  7.309E-01  1.200E+01  7.800E-02  1.244E+00
   1    5    6     2     2    1.0682E+01  2.2323E-01   1.0458E+01  0.000E+00  0.000E+00  0.000E+00  1.06723E+03  7.204E-01  1.200E+01  6.000E-02  1.240E+00
   1    6    6     2     3    1.0458E+01  2.2268E-01   1.0236E+01  0.000E+00  0.000E+00  0.000E+00  1.06250E+03  7.113E-01  1.200E+01  6.000E-02  1.237E+00
   1    7    6     2     4    1.0236E+01  2.2212E-01   1.0013E+01  0.000E+00  0.000E+00  0.000E+00  1.05778E+03  7.021E-01  1.200E+01  6.000E-02  1.234E+00
   1    8    6     2     5    1.0013E+01  2.2157E-01   9.7919E+00  0.000E+00  0.000E+00  0.000E+00  1.05305E+03  6.928E-01  1.200E+01  6.000E-02  1.231E+00
   1    3    5     3     1    2.0000E+00  2.8252E-01   1.7175E+00  0.000E+00  0.000E+00  0.000E+00  1.07555E+03  1.909E+00  9.636E+00  7.227E-02  1.955E+00
   1    3    6     3     2    1.7175E+00  2.4905E-01   1.4684E+00  0.000E+00  0.000E+00  0.000E+00  1.07264E+03  1.727E+00  8.909E+00  6.682E-02  1.864E+00
   1    3    7     3     3    1.4684E+00  1.9718E-01   1.2712E+00  0.000E+00  0.000E+00  0.000E+00  1.06987E+03  1.555E+00  8.218E+00  5.547E-02  1.777E+00
   1    4    8     3     4    1.2712E+00  2.2567E-01   1.0456E+00  0.000E+00  0.000E+00  0.000E+00  1.06682E+03  1.364E+00  7.455E+00  6.709E-02  1.682E+00
   1    5    8     3     5    1.0456E+00  1.5790E-01   8.8768E-01  0.000E+00  0.000E+00  0.000E+00  1.06362E+03  1.164E+00  6.655E+00  4.991E-02  1.582E+00
   1    6    8     3     6    8.8768E-01  5.5980E-02   8.3170E-01  0.000E+00  0.000E+00  0.000E+00  1.06158E+03  1.036E+00  6.145E+00  1.844E-02  1.518E+00
   1    5   10     4     1    1.0000E+01  9.0919E-02   9.9091E+00  0.000E+00  0.000E+00  0.000E+00  1.07836E+03  6.368E-01  1.000E+01  2.500E-02  1.212E+00
   1    5    9     4     2    9.9091E+00  1.8158E-01   9.7275E+00  0.000E+00  0.000E+00  0.000E+00  1.07154E+03  6.315E-01  1.000E+01  5.000E-02  1.211E+00
   1    6    8     4     3    9.7275E+00  1.2689E-01   9.6006E+00  0.000E+00  0.000E+00  0.000E+00  1.06381E+03  6.256E-01  1.000E+01  3.500E-02  1.209E+00
   1    6    8     5     1    1.0432E+01  2.2686E-01   1.0205E+01  0.000E+00  0.000E+00  0.000E+00  1.05868E+03  6.790E-01  1.542E+01  6.166E-02  1.226E+00
   1    7    7     5     2    1.0205E+01  2.7894E-01   9.9265E+00  0.000E+00  0.000E+00  0.000E+00  1.05417E+03  6.732E-01  1.519E+01  7.594E-02  1.224E+00
   1    8    7     5     3    9.9265E+00  1.9221E-01   9.7343E+00  0.000E+00  0.000E+00  0.000E+00  1.04992E+03  6.676E-01  1.497E+01  5.241E-02  1.223E+00
   1    8    6     5     4    9.7343E+00  1.3577E-01   9.5985E+00  0.000E+00  0.000E+00  0.000E+00  1.04691E+03  6.637E-01  1.482E+01  3.706E-02  1.221E+00
   1    9    6     6     1    9.5985E+00  2.2097E-01   9.3776E+00  0.000E+00  0.000E+00  0.000E+00  1.04341E+03  6.828E-01  1.200E+01  6.000E-02  1.228E+00
   1   10    7     6     2    9.3776E+00  2.2039E-01   9.1572E+00  0.000E+00  0.000E+00  0.000E+00  1.03885E+03  6.732E-01  1.200E+01  6.000E-02  1.224E+00
   1   11    7     6     3    9.1572E+00  2.1981E-01   8.9374E+00  0.000E+00  0.000E+00  0.000E+00  1.03430E+03  6.636E-01  1.200E+01  6.000E-02  1.221E+00
   1   12    7     6     4    8.9374E+00  2.1923E-01   8.7181E+00  0.000E+00  0.000E+00  0.000E+00  1.02974E+03  6.539E-01  1.200E+01  6.000E-02  1.218E+00
   1   13    7     6     5    8.7181E+00 -4.8240E-02   8.7664E+00  0.000E+00  0.000E+00  0.000E+00  1.02656E+03  6.500E-01  1.200E+01  2.400E-01 -6.700E-02
   1   14    9     7     1    1.5000E+02  1.3725E+00   1.4863E+02  0.000E+00  0.000E+00  0.000E+00  1.03987E+03  2.288E+00  5.529E+01  5.593E-01  8.180E-01
   1   13    8     7     2    1.4863E+02  1.9367E+00   1.4669E+02  0.000E+00  0.000E+00  0.000E+00  1.03478E+03  2.279E+00  5.525E+01  6.147E-01  1.050E+00
   1   13    7     7     3    1.4669E+02  1.6353E+00   1.4506E+02  0.000E+00  0.000E+00  0.000E+00  1.02969E+03  2.269E+00  5.521E+01  5.584E-01  9.762E-01
   1   13    6     8     1    1.5382E+02  9.8715E-01   1.5283E+02  0.000E+00  0.000E+00  0.000E+00  1.02472E+03  2.840E+00  4.118E+01  4.197E-01  7.841E-01
   1   13    5     8     2    1.5283E+02  2.4816E-01   1.5259E+02  0.000E+00  0.000E+00  0.000E+00  1.01846E+03  2.836E+00  4.112E+01  4.190E-01  1.974E-01
   1   13    4     8     3    1.5259E+02 -2.1693E+00   1.5476E+02  0.000E+00  0.000E+00  0.000E+00  1.01222E+03  2.842E+00  4.122E+01  4.200E+00 -1.722E-01
   1   13    3     8     4    1.5476E+02 -3.5054E+00   1.5826E+02  0.000E+00  0.000E+00  0.000E+00  1.00599E+03  2.862E+00  4.150E+01  4.229E+00 -2.763E-01
   1   13    2     8     5    1.5826E+02 -2.5435E+00   1.6080E+02  0.000E+00  0.000E+00  0.000E+00  9.99758E+02  2.883E+00  4.180E+01  4.259E+00 -1.990E-01
   1   13    1     8     6    1.6080E+02 -1.9713E+00   1.6278E+02  0.000E+00  0.000E+00  0.000E+00  9.94773E+02  2.898E+00  4.202E+01  2.569E+00 -2.558E-01
   1    8    6     9     1    9.7919E+00  0.0000E+00   9.7919E+00  0.000E+00  0.000E+00  0.000E+00  1.08099E+03  2.238E+00  4.000E+00  0.000E+00  1.746E+00
   1    8    5     9     2    9.7919E+00  0.0000E+00   9.7919E+00  0.000E+00  0.000E+00  0.000E+00  1.08049E+03  2.238E+00  4.000E+00  0.000E+00  1.746E+00





UNSATURATED ZONE PACKAGE VOLUMETRIC BUDGET FOR  TIME STEP    30 STRESS PERIOD   21
  ------------------------------------------------------------------------------



     CUMULATIVE VOLUMES      L**3       RATES FOR THIS TIME STEP      L**3/T
     ------------------                 ------------------------

           IN:                                      IN:
           ---                                      ---
        INFILTRATION =  1001894570.4211          INFILTRATION =          52.9502

          OUT:                                     OUT:
          ----                                     ----
              UZF ET =   943533523.4932                UZF ET =          52.8414
        UZF RECHARGE =      175481.8973          UZF RECHARGE =       0.0000E+00

            IN - OUT =    58185565.0307              IN - OUT =           0.1089

          STORAGE:                                 STORAGE:
          --------                                 --------
      STORAGE CHANGE =    58185551.9704        STORAGE CHANGE =           0.1089

 PERCENT DISCREPANCY IS DIFFERENCE BETWEEN IN-OUT MINUS CHANGE IN STORAGE
 DIVIDED BY THE AVERAGE OF IN AND OUT TIMES 100

 PERCENT DISCREPANCY =           0.00     PERCENT DISCREPANCY =           0.00






1
  VOLUMETRIC BUDGET FOR AGRICULTURAL FIELDS AT  END OF TIME STEP   30, STRESS PERIOD  21
  ------------------------------------------------------------------------------

     CUMULATIVE VOLUMES      L**3       RATES FOR THIS TIME STEP      L**3/T
     ------------------                 ------------------------

           IN:                                      IN:
           ---                                      ---
               AG WELLS  =   405244608.0000                 AG WELLS  =          38.7506
      DIVERSION SEGMENTS =   364735328.0000        DIVERSION SEGMENTS =           9.7919
           GW IRRIGATION =           0.0000             GW IRRIGATION =           0.0000
           SW IRRIGATION =           0.0000             SW IRRIGATION =           0.0000
        SYSTEM LOSSES GW =           0.0000          SYSTEM LOSSES GW =           0.0000
        SYSTEM LOSSES SW =           0.0000          SYSTEM LOSSES SW =           0.0000

                TOTAL IN =   769979904.0000                  TOTAL IN =          48.5425

          OUT:                                     OUT:
          ----                                     ----
               AG WELLS  =           0.0000                 AG WELLS  =           0.0000
      DIVERSION SEGMENTS =           0.0000        DIVERSION SEGMENTS =           0.0000
           GW IRRIGATION =   405244608.0000             GW IRRIGATION =          38.7506
           SW IRRIGATION =   364742240.0000             SW IRRIGATION =           9.7921
        SYSTEM LOSSES GW =           0.0000          SYSTEM LOSSES GW =           0.0000
        SYSTEM LOSSES SW =           0.0000          SYSTEM LOSSES SW =           0.0000

               TOTAL OUT =   769986816.0000                 TOTAL OUT =          48.5427

                IN - OUT =       -6912.0000                  IN - OUT =      -1.9455E-04

     PERCENT DISCREPANCY =          -0.00         PERCENT DISCREPANCY =          -0.00



1
  VOLUMETRIC BUDGET FOR ENTIRE MODEL AT END OF TIME STEP   30, STRESS PERIOD  21
  ------------------------------------------------------------------------------

     CUMULATIVE VOLUMES      L**3       RATES FOR THIS TIME STEP      L**3/T
     ------------------                 ------------------------

           IN:                                      IN:
           ---                                      ---
             STORAGE     =   499423424.0000               STORAGE     =          37.6114
       CONSTANT HEAD     =           0.0000         CONSTANT HEAD     =           0.0000
     HEAD DEP BOUNDS     =    15174753.0000       HEAD DEP BOUNDS     =           0.2883
      STREAM LEAKAGE     =   619498240.0000        STREAM LEAKAGE     =          11.5450
        UZF RECHARGE     =      175481.8594          UZF RECHARGE     =           0.0000
               GW ET     =           0.0000                 GW ET     =           0.0000
     SURFACE LEAKAGE     =           0.0000       SURFACE LEAKAGE     =           0.0000
           AG WELLS      =           0.0000             AG WELLS      =           0.0000

                TOTAL IN =  1134271872.0000                  TOTAL IN =          49.4446

          OUT:                                     OUT:
          ----                                     ----
             STORAGE     =   171742640.0000               STORAGE     =           0.1671
       CONSTANT HEAD     =           0.0000         CONSTANT HEAD     =           0.0000
     HEAD DEP BOUNDS     =    15175876.0000       HEAD DEP BOUNDS     =           0.2865
      STREAM LEAKAGE     =   542074112.0000        STREAM LEAKAGE     =          10.2377
        UZF RECHARGE     =           0.0000          UZF RECHARGE     =           0.0000
               GW ET     =           0.0000                 GW ET     =           0.0000
     SURFACE LEAKAGE     =           0.0000       SURFACE LEAKAGE     =           0.0000
           AG WELLS      =   405244608.0000             AG WELLS      =          38.7506

               TOTAL OUT =  1134237184.0000                 TOTAL OUT =          49.4420

                IN - OUT =       34688.0000                  IN - OUT =       2.6627E-03

     PERCENT DISCREPANCY =           0.00         PERCENT DISCREPANCY =           0.01






         TIME SUMMARY AT END OF TIME STEP   30 IN STRESS PERIOD   21
                    SECONDS     MINUTES      HOURS       DAYS        YEARS
                    -----------------------------------------------------------
   TIME STEP LENGTH  87667.      1461.1      24.352      1.0147     2.77799E-03
 STRESS PERIOD TIME 2.63000E+06  43833.      730.56      30.440     8.33397E-02
         TOTAL TIME 5.26866E+07 8.78110E+05  14635.      609.80      1.6695    
1
1
                            STRESS PERIOD NO.   22, LENGTH =   2630000.    
                            -----------------------------------------------

                              NUMBER OF TIME STEPS =    30

                               MULTIPLIER FOR DELT =     1.000

                            INITIAL TIME STEP SIZE =   87666.66    

 REUSING NON-PARAMETER GHB CELLS FROM LAST STRESS PERIOD

      2 GHB CELLS

 REUSING STREAM SEGMENT DATA FROM LAST STRESS PERIOD



            AREAL INFILTRATION RATE
 READING ON UNIT   19 WITH FORMAT: (10F4.0)            

            1           2           3           4           5           6           7           8           9          10
 ........................................................................................................................
   1   1.2000E-09   0.000       0.000       0.000       0.000       0.000       0.000       0.000       0.000       0.000    
   2   2.1000E-09  2.0000E-09  8.0000E-10  8.5000E-09   0.000       0.000       0.000       0.000       0.000       0.000    
   3   5.0000E-10  1.1000E-09  8.8000E-09  5.5000E-09   0.000       0.000       0.000       0.000       0.000       0.000    
   4   8.5000E-09  1.1000E-09  1.1000E-09  1.1000E-09  2.0000E-09   0.000       0.000       0.000       0.000       0.000    
   5   8.5000E-09  1.1000E-09  1.1000E-09  1.1000E-09  1.1000E-09   0.000       0.000       0.000       0.000       0.000    
   6   8.5000E-09  5.2000E-09  2.1000E-09  1.1000E-09  1.5000E-09   0.000       0.000       0.000       0.000       0.000    
   7   8.5000E-09  5.2000E-09  2.1000E-09  1.2000E-09  2.0000E-09   0.000       0.000       0.000       0.000       0.000    
   8   5.0000E-10  5.2000E-09  2.1000E-09  1.2000E-09  5.0000E-09   0.000       0.000       0.000       0.000       0.000    
   9   5.0000E-10  5.2000E-09  2.1000E-09  1.2000E-09  5.0000E-09   0.000       0.000       0.000       0.000       0.000    
  10   5.0000E-10  5.2000E-09  2.1000E-09  1.2000E-09  5.8000E-09   0.000       0.000       0.000       0.000       0.000    
  11   1.0000E-10  1.1000E-09  1.1000E-09  1.2000E-09  5.0000E-09   0.000       0.000       0.000       0.000       0.000    
  12   1.1000E-09  1.1000E-09  1.1000E-09  1.1000E-09  2.0000E-09   0.000       0.000       0.000       0.000       0.000    
  13   1.1000E-09  2.2000E-09  2.2000E-09  2.1000E-09  1.0000E-09   0.000       0.000       0.000       0.000       0.000    
  14   2.0000E-10  5.5000E-09  5.5000E-09  5.2000E-09  1.0000E-09   0.000       0.000       0.000       0.000       0.000    
  15    0.000      8.8000E-09  8.8000E-09   0.000       0.000       0.000       0.000       0.000       0.000       0.000    

                  ET RATE =  7.500000E-08

 USING ET EXTINCTION DEPTH FROM PREVIOUS STRESS PERIOD. CURRENT PERIOD IS:      22

 USING EXTINCTION WATER CONTENT FROM PREVIOUS STRESS PERIOD. CURRENT PERIOD IS:      22

 USING AIR ENTRY PRESSURE FROM PREVIOUS STRESS PERIOD. CURRENT PERIOD IS:      22

 USING ROOT PRESSURE HEAD FROM PREVIOUS STRESS PERIOD. CURRENT PERIOD IS:      22

 USING ROOT ACTIVITY FROM PREVIOUS STRESS PERIOD. CURRENT PERIOD IS:      22

 PROCESSING AG STRESS PERIOD DATA

 READING AG STRESS PERIOD DATA

 READING IRRIGATION SEGMENT

 READING IRRIGATION WELL

 READING SUPPLEMENTAL WELL

 END PROCESSING AG STRESS PERIOD DATA OPTIONS
 
 SOLVING FOR HEAD 
                                                   Max.-Head-Change                         Max.-Flux-Residual
  Residual-Control   Outer-Iter.   Inner-Iter.     Column Row Layer    Maximum-Head-Change  Column Row Layer    Maximum-Flux-Residual          L2-NORM 
          0                 1           2             5    8     1       0.7291748880E-01       5    8    1         0.3960076615E+01      0.9818123652E+01
          0                 2           2             5    8     1      -0.1363186095E-01       5    8    1        -0.7560404700E+00      0.1830752422E+01
          0                 3           2             4    7     1      -0.1499613598E-02       4    7    1        -0.8058411794E-01      0.1954981119E+00
          0                 4           2             4    7     1      -0.1078652907E-02       5    8    1        -0.5835247489E-01      0.1425081517E+00
          0                 5           2             4    7     1      -0.5179250003E-03       4    7    1        -0.2779589068E-01      0.6803671302E-01
          0                 6           2             4    7     1      -0.2612133307E-03       5    8    1        -0.1402019930E-01      0.3434047171E-01
          0                 7           2             4    7     1      -0.1308148916E-03       4    7    1        -0.7020249589E-02      0.1719559349E-01
          0                 8           1             4    7     1      -0.6557495751E-04       4    7    1        -0.3519079430E-02      0.8619865093E-02

    ------------------------------------------------
       NWT REQUIRED            8 OUTER ITERATIONS 
       AND A TOTAL OF         15 INNER ITERATIONS.
    ------------------------------------------------

 NO OUTPUT CONTROL FOR STRESS PERIOD   22   TIME STEP    1
 
 SOLVING FOR HEAD 
                                                   Max.-Head-Change                         Max.-Flux-Residual
  Residual-Control   Outer-Iter.   Inner-Iter.     Column Row Layer    Maximum-Head-Change  Column Row Layer    Maximum-Flux-Residual          L2-NORM 
          0                 1           2             5    8     1       0.6818118880E-01       5    8    1         0.3701225884E+01      0.9312342741E+01
          0                 2           2             5    6     1      -0.1319794061E-01       5    8    1        -0.7312810447E+00      0.1779887816E+01
          0                 3           2             4    7     1      -0.1518259031E-02       4    7    1        -0.8156377631E-01      0.1989345609E+00
          0                 4           2             4    7     1      -0.1079548610E-02       5    8    1        -0.5832589575E-01      0.1425242834E+00
          0                 5           2             4    7     1      -0.5185591156E-03       4    7    1        -0.2782979324E-01      0.6812706549E-01
          0                 6           2             4    7     1      -0.2613324187E-03       5    6    1        -0.1402623280E-01      0.3435560694E-01
          0                 7           2             4    7     1      -0.1308299894E-03       4    7    1        -0.7021053877E-02      0.1719759932E-01
          0                 8           1             4    7     1      -0.6556507173E-04       4    7    1        -0.3518546238E-02      0.8618556604E-02

    ------------------------------------------------
       NWT REQUIRED            8 OUTER ITERATIONS 
       AND A TOTAL OF         15 INNER ITERATIONS.
    ------------------------------------------------

 NO OUTPUT CONTROL FOR STRESS PERIOD   22   TIME STEP    2
 
 SOLVING FOR HEAD 
                                                   Max.-Head-Change                         Max.-Flux-Residual
  Residual-Control   Outer-Iter.   Inner-Iter.     Column Row Layer    Maximum-Head-Change  Column Row Layer    Maximum-Flux-Residual          L2-NORM 
          0                 1           2             5    6     1       0.6575006449E-01       5    8    1         0.3561199275E+01      0.9057243046E+01
          0                 2           2             5    6     1      -0.1296141851E-01       5    8    1        -0.7170475159E+00      0.1756419048E+01
          0                 3           2             4    7     1      -0.1522157833E-02       4    7    1        -0.8175381894E-01      0.2004982157E+00
          0                 4           2             4    7     1      -0.1080722461E-02       5    8    1        -0.5832157112E-01      0.1425859356E+00
          0                 5           2             4    7     1      -0.5190959333E-03       4    7    1        -0.2785848660E-01      0.6820399586E-01
          0                 6           2             4    7     1      -0.2615560205E-03       5    6    1        -0.1403791501E-01      0.3438453013E-01
          0                 7           2             4    7     1      -0.1308888383E-03       4    7    1        -0.7024207054E-02      0.1720535542E-01
          0                 8           1             4    7     1      -0.6557210417E-04       4    7    1        -0.3518921413E-02      0.8619473294E-02

    ------------------------------------------------
       NWT REQUIRED            8 OUTER ITERATIONS 
       AND A TOTAL OF         15 INNER ITERATIONS.
    ------------------------------------------------

 NO OUTPUT CONTROL FOR STRESS PERIOD   22   TIME STEP    3
 
 SOLVING FOR HEAD 
                                                   Max.-Head-Change                         Max.-Flux-Residual
  Residual-Control   Outer-Iter.   Inner-Iter.     Column Row Layer    Maximum-Head-Change  Column Row Layer    Maximum-Flux-Residual          L2-NORM 
          0                 1           2             5    6     1       0.6350005956E-01       5    6    1         0.3434316122E+01      0.8816103141E+01
          0                 2           2             5    6     1      -0.1273899026E-01       5    6    1        -0.7041629158E+00      0.1734224200E+01
          0                 3           2             4    7     1      -0.1526802141E-02       4    7    1        -0.8198522698E-01      0.2020877180E+00
          0                 4           2             4    7     1      -0.1082101656E-02       5    6    1        -0.5833628928E-01      0.1426814811E+00
          0                 5           2             4    7     1      -0.5197604700E-03       4    7    1        -0.2789404393E-01      0.6829724680E-01
          0                 6           2             4    7     1      -0.2618461698E-03       5    6    1        -0.1405319415E-01      0.3442223829E-01
          0                 7           2             4    7     1      -0.1310140929E-03       4    7    1        -0.7030924721E-02      0.1722184018E-01
          0                 8           1             4    7     1      -0.6561779255E-04       4    7    1        -0.3521371464E-02      0.8625472543E-02

    ------------------------------------------------
       NWT REQUIRED            8 OUTER ITERATIONS 
       AND A TOTAL OF         15 INNER ITERATIONS.
    ------------------------------------------------

 NO OUTPUT CONTROL FOR STRESS PERIOD   22   TIME STEP    4
 
 SOLVING FOR HEAD 
                                                   Max.-Head-Change                         Max.-Flux-Residual
  Residual-Control   Outer-Iter.   Inner-Iter.     Column Row Layer    Maximum-Head-Change  Column Row Layer    Maximum-Flux-Residual          L2-NORM 
          0                 1           2             5    6     1       0.6137975406E-01       5    6    1         0.3317506723E+01      0.8587926032E+01
          0                 2           2             5    6     1      -0.1252993359E-01       5    6    1        -0.6923273645E+00      0.1713238463E+01
          0                 3           2             4    7     1      -0.1532148838E-02       4    7    1        -0.8225562037E-01      0.2037002881E+00
          0                 4           2             4    7     1      -0.1083688111E-02       5    6    1        -0.5836767941E-01      0.1428107518E+00
          0                 5           2             4    7     1      -0.5205437112E-03       4    7    1        -0.2793598090E-01      0.6840566213E-01
          0                 6           2             4    7     1      -0.2622046108E-03       5    6    1        -0.1407216209E-01      0.3446895842E-01
          0                 7           2             4    7     1      -0.1311778644E-03       4    7    1        -0.7039710174E-02      0.1724338773E-01
          0                 8           1             4    7     1      -0.6568854277E-04       4    7    1        -0.3525166782E-02      0.8634767023E-02

    ------------------------------------------------
       NWT REQUIRED            8 OUTER ITERATIONS 
       AND A TOTAL OF         15 INNER ITERATIONS.
    ------------------------------------------------

 NO OUTPUT CONTROL FOR STRESS PERIOD   22   TIME STEP    5
 
 SOLVING FOR HEAD 
                                                   Max.-Head-Change                         Max.-Flux-Residual
  Residual-Control   Outer-Iter.   Inner-Iter.     Column Row Layer    Maximum-Head-Change  Column Row Layer    Maximum-Flux-Residual          L2-NORM 
          0                 1           2             5    6     1       0.5938008486E-01       5    6    1         0.3207410130E+01      0.8371778693E+01
          0                 2           2             5    7     1      -0.1234524836E-01       5    6    1        -0.6812049730E+00      0.1693378103E+01
          0                 3           2             4    7     1      -0.1538146096E-02       4    7    1        -0.8256214852E-01      0.2053319291E+00
          0                 4           2             4    7     1      -0.1085459920E-02       5    6    1        -0.5841329083E-01      0.1429704287E+00
          0                 5           2             4    7     1      -0.5214416413E-03       4    7    1        -0.2798408149E-01      0.6852874277E-01
          0                 6           2             4    7     1      -0.2626149670E-03       5    6    1        -0.1409393825E-01      0.3452253543E-01
          0                 7           2             4    7     1      -0.1313690851E-03       4    7    1        -0.7049969402E-02      0.1726854301E-01
          0                 8           1             4    7     1      -0.6577846530E-04       4    7    1        -0.3529991336E-02      0.8646582944E-02

    ------------------------------------------------
       NWT REQUIRED            8 OUTER ITERATIONS 
       AND A TOTAL OF         15 INNER ITERATIONS.
    ------------------------------------------------

 NO OUTPUT CONTROL FOR STRESS PERIOD   22   TIME STEP    6
 
 SOLVING FOR HEAD 
                                                   Max.-Head-Change                         Max.-Flux-Residual
  Residual-Control   Outer-Iter.   Inner-Iter.     Column Row Layer    Maximum-Head-Change  Column Row Layer    Maximum-Flux-Residual          L2-NORM 
          0                 1           2             5    7     1       0.5750407677E-01       5    6    1         0.3102034046E+01      0.8163344156E+01
          0                 2           2             5    7     1      -0.1222012551E-01       5    6    1        -0.6695039912E+00      0.1671616857E+01
          0                 3           2             4    7     1      -0.1541966403E-02       4    7    1        -0.8275300484E-01      0.2066257387E+00
          0                 4           2             4    7     1      -0.1085400430E-02       5    6    1        -0.5836461144E-01      0.1428951007E+00
          0                 5           2             4    7     1      -0.5214792683E-03       4    7    1        -0.2798602099E-01      0.6853834807E-01
          0                 6           2             4    7     1      -0.2625946329E-03       5    7    1        -0.1409267178E-01      0.3451952753E-01
          0                 7           2             4    7     1      -0.1313461101E-03       4    7    1        -0.7048734389E-02      0.1726554170E-01
          0                 8           1             4    7     1      -0.6575676798E-04       4    7    1        -0.3528826149E-02      0.8643727087E-02

    ------------------------------------------------
       NWT REQUIRED            8 OUTER ITERATIONS 
       AND A TOTAL OF         15 INNER ITERATIONS.
    ------------------------------------------------

 NO OUTPUT CONTROL FOR STRESS PERIOD   22   TIME STEP    7
 
 SOLVING FOR HEAD 
                                                   Max.-Head-Change                         Max.-Flux-Residual
  Residual-Control   Outer-Iter.   Inner-Iter.     Column Row Layer    Maximum-Head-Change  Column Row Layer    Maximum-Flux-Residual          L2-NORM 
          0                 1           2             5    7     1       0.5646584009E-01       5    6    1         0.3002861545E+01      0.7966037143E+01
          0                 2           2             5    7     1      -0.1210271926E-01       5    6    1        -0.6586966356E+00      0.1651472421E+01
          0                 3           2             4    7     1      -0.1546962269E-02       4    7    1        -0.8300804472E-01      0.2080109617E+00
          0                 4           2             4    7     1      -0.1085948246E-02       5    6    1        -0.5835222717E-01      0.1429048940E+00
          0                 5           2             4    7     1      -0.5218252872E-03       4    7    1        -0.2800451846E-01      0.6858813259E-01
          0                 6           2             4    7     1      -0.2627337140E-03       5    7    1        -0.1410003514E-01      0.3453750372E-01
          0                 7           2             4    7     1      -0.1314019212E-03       4    7    1        -0.7051728100E-02      0.1727289658E-01
          0                 8           1             4    7     1      -0.6577952671E-04       4    7    1        -0.3530046963E-02      0.8646715869E-02

    ------------------------------------------------
       NWT REQUIRED            8 OUTER ITERATIONS 
       AND A TOTAL OF         15 INNER ITERATIONS.
    ------------------------------------------------

 NO OUTPUT CONTROL FOR STRESS PERIOD   22   TIME STEP    8
 
 SOLVING FOR HEAD 
                                                   Max.-Head-Change                         Max.-Flux-Residual
  Residual-Control   Outer-Iter.   Inner-Iter.     Column Row Layer    Maximum-Head-Change  Column Row Layer    Maximum-Flux-Residual          L2-NORM 
          0                 1           2             5    7     1       0.5557565611E-01       5    7    1         0.2949479009E+01      0.7793235587E+01
          0                 2           2             5    7     1      -0.1208631460E-01       5    7    1        -0.6571659708E+00      0.1644894785E+01
          0                 3           2             4    7     1      -0.1564256218E-02       4    7    1        -0.8392412586E-01      0.2109087684E+00
          0                 4           2             4    7     1      -0.1095207579E-02       5    7    1        -0.5882964873E-01      0.1440645110E+00
          0                 5           2             4    7     1      -0.5263570612E-03       4    7    1        -0.2824765731E-01      0.6918781121E-01
          0                 6           2             4    7     1      -0.2649808895E-03       5    7    1        -0.1422053743E-01      0.3483262048E-01
          0                 7           2             4    7     1      -0.1325151468E-03       4    7    1        -0.7111468859E-02      0.1741924946E-01
          0                 8           1             4    7     1      -0.6633019561E-04       4    7    1        -0.3559598279E-02      0.8719099316E-02

    ------------------------------------------------
       NWT REQUIRED            8 OUTER ITERATIONS 
       AND A TOTAL OF         15 INNER ITERATIONS.
    ------------------------------------------------

 NO OUTPUT CONTROL FOR STRESS PERIOD   22   TIME STEP    9
 
 SOLVING FOR HEAD 
                                                   Max.-Head-Change                         Max.-Flux-Residual
  Residual-Control   Outer-Iter.   Inner-Iter.     Column Row Layer    Maximum-Head-Change  Column Row Layer    Maximum-Flux-Residual          L2-NORM 
          0                 1           2             5    7     1       0.5454007994E-01       5    7    1         0.2894547474E+01      0.7609791428E+01
          0                 2           2             4    7     1      -0.1195131954E-01       5    7    1        -0.6493438070E+00      0.1622429253E+01
          0                 3           2             4    7     1      -0.1566366751E-02       5    8    1        -0.8420441676E-01      0.2118182148E+00
          0                 4           2             4    7     1      -0.1093256145E-02       5    7    1        -0.5870723773E-01      0.1437554192E+00
          0                 5           2             4    7     1      -0.5255307714E-03       5    8    1        -0.2820383529E-01      0.6908283882E-01
          0                 6           2             4    7     1      -0.2645300741E-03       5    7    1        -0.1419625828E-01      0.3477310486E-01
          0                 7           2             4    7     1      -0.1322801620E-03       4    7    1        -0.7098857990E-02      0.1738837814E-01
          0                 8           1             4    7     1      -0.6620671082E-04       4    7    1        -0.3552971494E-02      0.8702865968E-02

    ------------------------------------------------
       NWT REQUIRED            8 OUTER ITERATIONS 
       AND A TOTAL OF         15 INNER ITERATIONS.
    ------------------------------------------------

 NO OUTPUT CONTROL FOR STRESS PERIOD   22   TIME STEP   10
 
 SOLVING FOR HEAD 
                                                   Max.-Head-Change                         Max.-Flux-Residual
  Residual-Control   Outer-Iter.   Inner-Iter.     Column Row Layer    Maximum-Head-Change  Column Row Layer    Maximum-Flux-Residual          L2-NORM 
          0                 1           2             4    7     1       0.5359910915E-01       5    7    1         0.2843531870E+01      0.7440915930E+01
          0                 2           2             4    7     1      -0.1191285244E-01       5    7    1        -0.6438805483E+00      0.1606022487E+01
          0                 3           2             4    7     1      -0.1573827341E-02       5    8    1        -0.8508323612E-01      0.2133611064E+00
          0                 4           2             4    7     1      -0.1094996123E-02       5    7    1        -0.5878412367E-01      0.1439358108E+00
          0                 5           2             4    7     1      -0.5264873420E-03       5    8    1        -0.2825748717E-01      0.6921193495E-01
          0                 6           2             4    7     1      -0.2649784126E-03       4    7    1        -0.1422029232E-01      0.3483180839E-01
          0                 7           2             4    7     1      -0.1324942093E-03       4    7    1        -0.7110345090E-02      0.1741653231E-01
          0                 8           1             4    7     1      -0.6631055542E-04       4    7    1        -0.3558544518E-02      0.8716515675E-02

    ------------------------------------------------
       NWT REQUIRED            8 OUTER ITERATIONS 
       AND A TOTAL OF         15 INNER ITERATIONS.
    ------------------------------------------------

 NO OUTPUT CONTROL FOR STRESS PERIOD   22   TIME STEP   11
 
 SOLVING FOR HEAD 
                                                   Max.-Head-Change                         Max.-Flux-Residual
  Residual-Control   Outer-Iter.   Inner-Iter.     Column Row Layer    Maximum-Head-Change  Column Row Layer    Maximum-Flux-Residual          L2-NORM 
          0                 1           2             4    7     1       0.5324908842E-01       5    7    1         0.2793604973E+01      0.7279732341E+01
          0                 2           2             4    7     1      -0.1187174846E-01       5    7    1        -0.6385092067E+00      0.1590239685E+01
          0                 3           2             4    7     1      -0.1581571206E-02       5    8    1        -0.8593466197E-01      0.2148924544E+00
          0                 4           2             4    7     1      -0.1096771728E-02       5    7    1        -0.5886406137E-01      0.1441251960E+00
          0                 5           2             4    7     1      -0.5274769209E-03       5    8    1        -0.2831270528E-01      0.6934519323E-01
          0                 6           2             4    7     1      -0.2654444135E-03       4    7    1        -0.1424530587E-01      0.3489285537E-01
          0                 7           2             4    7     1      -0.1327170059E-03       4    7    1        -0.7122302176E-02      0.1744583637E-01
          0                 8           1             4    7     1      -0.6641600327E-04       4    7    1        -0.3564203823E-02      0.8730376832E-02

    ------------------------------------------------
       NWT REQUIRED            8 OUTER ITERATIONS 
       AND A TOTAL OF         15 INNER ITERATIONS.
    ------------------------------------------------

 NO OUTPUT CONTROL FOR STRESS PERIOD   22   TIME STEP   12
 
 SOLVING FOR HEAD 
                                                   Max.-Head-Change                         Max.-Flux-Residual
  Residual-Control   Outer-Iter.   Inner-Iter.     Column Row Layer    Maximum-Head-Change  Column Row Layer    Maximum-Flux-Residual          L2-NORM 
          0                 1           2             4    7     1       0.5285623198E-01       4    7    1         0.2768531326E+01      0.7123247340E+01
          0                 2           2             4    7     1      -0.1181164359E-01       4    7    1        -0.6348279256E+00      0.1572921184E+01
          0                 3           2             4    7     1      -0.1587622979E-02       5    8    1        -0.8665576580E-01      0.2161633085E+00
          0                 4           2             4    7     1      -0.1097166364E-02       4    7    1        -0.5888492307E-01      0.1441362346E+00
          0                 5           2             4    7     1      -0.5278101422E-03       5    8    1        -0.2833250954E-01      0.6939171754E-01
          0                 6           2             4    7     1      -0.2655809588E-03       4    7    1        -0.1425263943E-01      0.3491061480E-01
          0                 7           2             4    7     1      -0.1327751660E-03       4    7    1        -0.7125424401E-02      0.1745349844E-01
          0                 8           1             4    7     1      -0.6644190402E-04       4    7    1        -0.3565594436E-02      0.8733782108E-02

    ------------------------------------------------
       NWT REQUIRED            8 OUTER ITERATIONS 
       AND A TOTAL OF         15 INNER ITERATIONS.
    ------------------------------------------------

 NO OUTPUT CONTROL FOR STRESS PERIOD   22   TIME STEP   13
 
 SOLVING FOR HEAD 
                                                   Max.-Head-Change                         Max.-Flux-Residual
  Residual-Control   Outer-Iter.   Inner-Iter.     Column Row Layer    Maximum-Head-Change  Column Row Layer    Maximum-Flux-Residual          L2-NORM 
          0                 1           2             4    7     1       0.5244743649E-01       4    7    1         0.2748292305E+01      0.6973879834E+01
          0                 2           2             4    7     1      -0.1175206115E-01       4    7    1        -0.6317405621E+00      0.1556493546E+01
          0                 3           2             4    7     1      -0.1594242230E-02       5    8    1        -0.8737077794E-01      0.2174645773E+00
          0                 4           2             4    7     1      -0.1097827745E-02       4    7    1        -0.5892100076E-01      0.1441861666E+00
          0                 5           2             4    7     1      -0.5282823661E-03       5    8    1        -0.2835959736E-01      0.6945637243E-01
          0                 6           2             4    7     1      -0.2657821684E-03       4    7    1        -0.1426344372E-01      0.3493689343E-01
          0                 7           2             4    7     1      -0.1328709946E-03       4    7    1        -0.7130568511E-02      0.1746611732E-01
          0                 8           1             4    7     1      -0.6648515450E-04       4    7    1        -0.3567916302E-02      0.8739475614E-02

    ------------------------------------------------
       NWT REQUIRED            8 OUTER ITERATIONS 
       AND A TOTAL OF         15 INNER ITERATIONS.
    ------------------------------------------------

 NO OUTPUT CONTROL FOR STRESS PERIOD   22   TIME STEP   14
 
 SOLVING FOR HEAD 
                                                   Max.-Head-Change                         Max.-Flux-Residual
  Residual-Control   Outer-Iter.   Inner-Iter.     Column Row Layer    Maximum-Head-Change  Column Row Layer    Maximum-Flux-Residual          L2-NORM 
          0                 1           2             4    7     1       0.5202456110E-01       4    7    1         0.2727216712E+01      0.6831171963E+01
          0                 2           2             4    7     1      -0.1169294659E-01       4    7    1        -0.6286681675E+00      0.1540889479E+01
          0                 3           2             4    6     1      -0.1603493236E-02       5    8    1        -0.8807959622E-01      0.2187918703E+00
          0                 4           2             4    7     1      -0.1098728552E-02       4    7    1        -0.5896988006E-01      0.1442708146E+00
          0                 5           2             4    7     1      -0.5288821808E-03       5    8    1        -0.2839336971E-01      0.6953757648E-01
          0                 6           2             4    7     1      -0.2660510637E-03       4    7    1        -0.1427788088E-01      0.3497208688E-01
          0                 7           2             4    7     1      -0.1329998385E-03       4    7    1        -0.7137484745E-02      0.1748306470E-01
          0                 8           1             4    7     1      -0.6654719129E-04       4    7    1        -0.3571246493E-02      0.8747624885E-02

    ------------------------------------------------
       NWT REQUIRED            8 OUTER ITERATIONS 
       AND A TOTAL OF         15 INNER ITERATIONS.
    ------------------------------------------------

 NO OUTPUT CONTROL FOR STRESS PERIOD   22   TIME STEP   15
 
 SOLVING FOR HEAD 
                                                   Max.-Head-Change                         Max.-Flux-Residual
  Residual-Control   Outer-Iter.   Inner-Iter.     Column Row Layer    Maximum-Head-Change  Column Row Layer    Maximum-Flux-Residual          L2-NORM 
          0                 1           2             4    7     1       0.5160541976E-01       4    7    1         0.2706239968E+01      0.6696627966E+01
          0                 2           2             4    7     1      -0.1164705234E-01       4    7    1        -0.6262956832E+00      0.1527686982E+01
          0                 3           2             4    6     1      -0.1615686650E-02       5    8    1        -0.8886192869E-01      0.2203328350E+00
          0                 4           2             4    7     1      -0.1100945198E-02       4    7    1        -0.5908933120E-01      0.1445314765E+00
          0                 5           2             4    7     1      -0.5301095331E-03       5    8    1        -0.2846066777E-01      0.6970106329E-01
          0                 6           2             4    7     1      -0.2666436269E-03       4    7    1        -0.1430968835E-01      0.3504984379E-01
          0                 7           2             4    7     1      -0.1332870447E-03       4    7    1        -0.7152899900E-02      0.1752083432E-01
          0                 8           1             4    7     1      -0.6668698581E-04       4    7    1        -0.3578749716E-02      0.8766003012E-02

    ------------------------------------------------
       NWT REQUIRED            8 OUTER ITERATIONS 
       AND A TOTAL OF         15 INNER ITERATIONS.
    ------------------------------------------------

 NO OUTPUT CONTROL FOR STRESS PERIOD   22   TIME STEP   16
 
 SOLVING FOR HEAD 
                                                   Max.-Head-Change                         Max.-Flux-Residual
  Residual-Control   Outer-Iter.   Inner-Iter.     Column Row Layer    Maximum-Head-Change  Column Row Layer    Maximum-Flux-Residual          L2-NORM 
          0                 1           2             4    7     1       0.5117073556E-01       4    7    1         0.2684362444E+01      0.6567397532E+01
          0                 2           2             4    7     1      -0.1159806527E-01       4    7    1        -0.6237482868E+00      0.1514746552E+01
          0                 3           2             5    8     1      -0.1628633538E-02       5    8    1        -0.8961522879E-01      0.2218389379E+00
          0                 4           2             4    7     1      -0.1103049709E-02       4    7    1        -0.5920272241E-01      0.1447802324E+00
          0                 5           2             4    7     1      -0.5313013973E-03       5    8    1        -0.2852592180E-01      0.6985969060E-01
          0                 6           2             4    7     1      -0.2672108964E-03       4    7    1        -0.1434013877E-01      0.3512429097E-01
          0                 7           2             4    7     1      -0.1335649093E-03       4    7    1        -0.7167814043E-02      0.1755737573E-01
          0                 8           1             4    7     1      -0.6681854620E-04       4    7    1        -0.3585811195E-02      0.8783299151E-02

    ------------------------------------------------
       NWT REQUIRED            8 OUTER ITERATIONS 
       AND A TOTAL OF         15 INNER ITERATIONS.
    ------------------------------------------------

 NO OUTPUT CONTROL FOR STRESS PERIOD   22   TIME STEP   17
 
 SOLVING FOR HEAD 
                                                   Max.-Head-Change                         Max.-Flux-Residual
  Residual-Control   Outer-Iter.   Inner-Iter.     Column Row Layer    Maximum-Head-Change  Column Row Layer    Maximum-Flux-Residual          L2-NORM 
          0                 1           2             4    7     1       0.5072391363E-01       4    7    1         0.2661767458E+01      0.6443351348E+01
          0                 2           2             4    7     1      -0.1154760110E-01       4    7    1        -0.6211132445E+00      0.1502227264E+01
          0                 3           2             5    8     1      -0.1641805022E-02       5    8    1        -0.9034962076E-01      0.2233314579E+00
          0                 4           2             4    7     1      -0.1105175008E-02       4    7    1        -0.5931718970E-01      0.1450343761E+00
          0                 5           2             4    7     1      -0.5325006675E-03       5    8    1        -0.2859144432E-01      0.7001911066E-01
          0                 6           2             4    7     1      -0.2677842999E-03       4    7    1        -0.1437091872E-01      0.3519955863E-01
          0                 7           2             4    7     1      -0.1338434494E-03       4    7    1        -0.7182764717E-02      0.1759400567E-01
          0                 8           1             4    7     1      -0.6695894192E-04       4    7    1        -0.3593346951E-02      0.8801757156E-02

    ------------------------------------------------
       NWT REQUIRED            8 OUTER ITERATIONS 
       AND A TOTAL OF         15 INNER ITERATIONS.
    ------------------------------------------------

 NO OUTPUT CONTROL FOR STRESS PERIOD   22   TIME STEP   18
 
 SOLVING FOR HEAD 
                                                   Max.-Head-Change                         Max.-Flux-Residual
  Residual-Control   Outer-Iter.   Inner-Iter.     Column Row Layer    Maximum-Head-Change  Column Row Layer    Maximum-Flux-Residual          L2-NORM 
          0                 1           2             4    7     1       0.5026668361E-01       4    7    1         0.2638550937E+01      0.6324198161E+01
          0                 2           2             4    7     1      -0.1149584087E-01       4    7    1        -0.6184008354E+00      0.1490106859E+01
          0                 3           2             5    8     1      -0.1654671930E-02       5    8    1        -0.9106649990E-01      0.2248109726E+00
          0                 4           2             4    7     1      -0.1107318574E-02       4    7    1        -0.5943260042E-01      0.1452933769E+00
          0                 5           2             4    7     1      -0.5337141871E-03       5    8    1        -0.2865761222E-01      0.7018023560E-01
          0                 6           2             4    7     1      -0.2683655801E-03       4    7    1        -0.1440212167E-01      0.3527587487E-01
          0                 7           2             4    7     1      -0.1341325387E-03       4    7    1        -0.7198281800E-02      0.1763202221E-01
          0                 8           1             4    7     1      -0.6709526414E-04       4    7    1        -0.3600664232E-02      0.8819679918E-02

    ------------------------------------------------
       NWT REQUIRED            8 OUTER ITERATIONS 
       AND A TOTAL OF         15 INNER ITERATIONS.
    ------------------------------------------------

 NO OUTPUT CONTROL FOR STRESS PERIOD   22   TIME STEP   19
 
 SOLVING FOR HEAD 
                                                   Max.-Head-Change                         Max.-Flux-Residual
  Residual-Control   Outer-Iter.   Inner-Iter.     Column Row Layer    Maximum-Head-Change  Column Row Layer    Maximum-Flux-Residual          L2-NORM 
          0                 1           2             4    7     1       0.4985822038E-01       4    7    1         0.2617807098E+01      0.6216457569E+01
          0                 2           2             4    7     1      -0.1148809369E-01       4    7    1        -0.6180432155E+00      0.1484144506E+01
          0                 3           2             5    8     1      -0.1672315403E-02       5    8    1        -0.9204569109E-01      0.2269446584E+00
          0                 4           2             4    7     1      -0.1113288336E-02       4    7    1        -0.5975331699E-01      0.1460575293E+00
          0                 5           2             4    7     1      -0.5367677827E-03       5    8    1        -0.2882241813E-01      0.7058308835E-01
          0                 6           2             4    7     1      -0.2698720025E-03       4    7    1        -0.1448297358E-01      0.3547381593E-01
          0                 7           2             4    7     1      -0.1348766188E-03       4    7    1        -0.7238216411E-02      0.1772984775E-01
          0                 8           1             4    7     1      -0.6746738501E-04       4    7    1        -0.3620635751E-02      0.8868598978E-02

    ------------------------------------------------
       NWT REQUIRED            8 OUTER ITERATIONS 
       AND A TOTAL OF         15 INNER ITERATIONS.
    ------------------------------------------------

 NO OUTPUT CONTROL FOR STRESS PERIOD   22   TIME STEP   20
 
 SOLVING FOR HEAD 
                                                   Max.-Head-Change                         Max.-Flux-Residual
  Residual-Control   Outer-Iter.   Inner-Iter.     Column Row Layer    Maximum-Head-Change  Column Row Layer    Maximum-Flux-Residual          L2-NORM 
          0                 1           2             4    7     1       0.4937357785E-01       4    7    1         0.2593018474E+01      0.6104980440E+01
          0                 2           2             4    7     1      -0.1142590748E-01       4    7    1        -0.6147571731E+00      0.1471697127E+01
          0                 3           2             5    8     1      -0.1683671296E-02       5    8    1        -0.9267806131E-01      0.2282723007E+00
          0                 4           2             4    7     1      -0.1114742718E-02       4    7    1        -0.5983167454E-01      0.1462303675E+00
          0                 5           2             4    7     1      -0.5376674506E-03       5    8    1        -0.2887153104E-01      0.7070265411E-01
          0                 6           2             4    7     1      -0.2702942060E-03       4    7    1        -0.1450564006E-01      0.3552924465E-01
          0                 7           2             4    7     1      -0.1350846553E-03       4    7    1        -0.7249384206E-02      0.1775720920E-01
          0                 8           1             4    7     1      -0.6756717399E-04       4    7    1        -0.3625992702E-02      0.8881720091E-02

    ------------------------------------------------
       NWT REQUIRED            8 OUTER ITERATIONS 
       AND A TOTAL OF         15 INNER ITERATIONS.
    ------------------------------------------------

 NO OUTPUT CONTROL FOR STRESS PERIOD   22   TIME STEP   21
 
 SOLVING FOR HEAD 
                                                   Max.-Head-Change                         Max.-Flux-Residual
  Residual-Control   Outer-Iter.   Inner-Iter.     Column Row Layer    Maximum-Head-Change  Column Row Layer    Maximum-Flux-Residual          L2-NORM 
          0                 1           2             4    7     1       0.4888370743E-01       4    7    1         0.2567892842E+01      0.5997759845E+01
          0                 2           2             4    7     1      -0.1136386657E-01       4    7    1        -0.6114725264E+00      0.1459720361E+01
          0                 3           2             5    8     1      -0.1694904515E-02       5    8    1        -0.9330309907E-01      0.2296046383E+00
          0                 4           2             4    7     1      -0.1116305537E-02       4    7    1        -0.5991582109E-01      0.1464194490E+00
          0                 5           2             4    7     1      -0.5386172626E-03       5    8    1        -0.2892324082E-01      0.7082867553E-01
          0                 6           2             4    7     1      -0.2707473198E-03       4    7    1        -0.1452996562E-01      0.3558874729E-01
          0                 7           2             4    7     1      -0.1353060725E-03       4    7    1        -0.7261270282E-02      0.1778632939E-01
          0                 8           1             4    7     1      -0.6767379858E-04       4    7    1        -0.3631716577E-02      0.8895740079E-02

    ------------------------------------------------
       NWT REQUIRED            8 OUTER ITERATIONS 
       AND A TOTAL OF         15 INNER ITERATIONS.
    ------------------------------------------------

 NO OUTPUT CONTROL FOR STRESS PERIOD   22   TIME STEP   22
 
 SOLVING FOR HEAD 
                                                   Max.-Head-Change                         Max.-Flux-Residual
  Residual-Control   Outer-Iter.   Inner-Iter.     Column Row Layer    Maximum-Head-Change  Column Row Layer    Maximum-Flux-Residual          L2-NORM 
          0                 1           2             4    7     1       0.4838987625E-01       4    7    1         0.2542501899E+01      0.5894533336E+01
          0                 2           2             4    7     1      -0.1130198433E-01       4    7    1        -0.6081905453E+00      0.1448175658E+01
          0                 3           2             5    8     1      -0.1706009632E-02       5    8    1        -0.9392054884E-01      0.2309388350E+00
          0                 4           2             4    7     1      -0.1117962533E-02       4    7    1        -0.6000499394E-01      0.1466227197E+00
          0                 5           2             4    7     1      -0.5396171090E-03       5    8    1        -0.2897754921E-01      0.7096114854E-01
          0                 6           2             4    7     1      -0.2712213572E-03       4    7    1        -0.1455541423E-01      0.3565101415E-01
          0                 7           2             4    7     1      -0.1355404587E-03       4    7    1        -0.7273852546E-02      0.1781716215E-01
          0                 8           1             4    7     1      -0.6778395617E-04       4    7    1        -0.3637630122E-02      0.8910224751E-02

    ------------------------------------------------
       NWT REQUIRED            8 OUTER ITERATIONS 
       AND A TOTAL OF         15 INNER ITERATIONS.
    ------------------------------------------------

 NO OUTPUT CONTROL FOR STRESS PERIOD   22   TIME STEP   23
 
 SOLVING FOR HEAD 
                                                   Max.-Head-Change                         Max.-Flux-Residual
  Residual-Control   Outer-Iter.   Inner-Iter.     Column Row Layer    Maximum-Head-Change  Column Row Layer    Maximum-Flux-Residual          L2-NORM 
          0                 1           2             4    7     1       0.4789279568E-01       4    7    1         0.2516886168E+01      0.5795076756E+01
          0                 2           2             4    7     1      -0.1124025722E-01       4    7    1        -0.6049113788E+00      0.1437036187E+01
          0                 3           2             5    8     1      -0.1716997409E-02       5    8    1        -0.9453104393E-01      0.2322745779E+00
          0                 4           2             4    7     1      -0.1119703441E-02       4    7    1        -0.6009864376E-01      0.1468387266E+00
          0                 5           2             4    7     1      -0.5406588247E-03       5    8    1        -0.2903402412E-01      0.7109900884E-01
          0                 6           2             4    7     1      -0.2717202219E-03       4    7    1        -0.1458219542E-01      0.3571654545E-01
          0                 7           2             4    7     1      -0.1357830994E-03       4    7    1        -0.7286877928E-02      0.1784906390E-01
          0                 8           1             4    7     1      -0.6790686105E-04       4    7    1        -0.3644227843E-02      0.8926385309E-02

    ------------------------------------------------
       NWT REQUIRED            8 OUTER ITERATIONS 
       AND A TOTAL OF         15 INNER ITERATIONS.
    ------------------------------------------------

 NO OUTPUT CONTROL FOR STRESS PERIOD   22   TIME STEP   24
 
 SOLVING FOR HEAD 
                                                   Max.-Head-Change                         Max.-Flux-Residual
  Residual-Control   Outer-Iter.   Inner-Iter.     Column Row Layer    Maximum-Head-Change  Column Row Layer    Maximum-Flux-Residual          L2-NORM 
          0                 1           2             4    7     1       0.4739347604E-01       4    7    1         0.2491102798E+01      0.5699182741E+01
          0                 2           2             4    7     1      -0.1117871080E-01       4    7    1        -0.6016368384E+00      0.1426274417E+01
          0                 3           2             5    8     1      -0.1727856996E-02       5    8    1        -0.9513402538E-01      0.2336093204E+00
          0                 4           2             4    7     1      -0.1121518503E-02       4    7    1        -0.6019624885E-01      0.1470660626E+00
          0                 5           2             4    7     1      -0.5417453149E-03       5    8    1        -0.2909282790E-01      0.7124264709E-01
          0                 6           2             4    7     1      -0.2722359373E-03       4    7    1        -0.1460988105E-01      0.3578430436E-01
          0                 7           2             4    7     1      -0.1360412162E-03       4    7    1        -0.7300734010E-02      0.1788300783E-01
          0                 8           1             4    7     1      -0.6803090240E-04       4    7    1        -0.3650886612E-02      0.8942695440E-02

    ------------------------------------------------
       NWT REQUIRED            8 OUTER ITERATIONS 
       AND A TOTAL OF         15 INNER ITERATIONS.
    ------------------------------------------------

 NO OUTPUT CONTROL FOR STRESS PERIOD   22   TIME STEP   25
 
 SOLVING FOR HEAD 
                                                   Max.-Head-Change                         Max.-Flux-Residual
  Residual-Control   Outer-Iter.   Inner-Iter.     Column Row Layer    Maximum-Head-Change  Column Row Layer    Maximum-Flux-Residual          L2-NORM 
          0                 1           2             4    7     1       0.4689273231E-01       4    7    1         0.2465197422E+01      0.5606679599E+01
          0                 2           2             4    7     1      -0.1111745270E-01       4    7    1        -0.5983730081E+00      0.1415880405E+01
          0                 3           2             5    8     1      -0.1738616042E-02       5    8    1        -0.9573105098E-01      0.2349449761E+00
          0                 4           2             4    7     1      -0.1123407238E-02       4    7    1        -0.6029778487E-01      0.1473045417E+00
          0                 5           2             4    7     1      -0.5428666185E-03       5    8    1        -0.2915343173E-01      0.7139076046E-01
          0                 6           2             4    7     1      -0.2727725329E-03       4    7    1        -0.1463868740E-01      0.3585481561E-01
          0                 7           2             4    7     1      -0.1363056430E-03       4    7    1        -0.7314928861E-02      0.1791778094E-01
          0                 8           1             4    7     1      -0.6816338576E-04       4    7    1        -0.3657998479E-02      0.8960115422E-02

    ------------------------------------------------
       NWT REQUIRED            8 OUTER ITERATIONS 
       AND A TOTAL OF         15 INNER ITERATIONS.
    ------------------------------------------------

 NO OUTPUT CONTROL FOR STRESS PERIOD   22   TIME STEP   26
 
 SOLVING FOR HEAD 
                                                   Max.-Head-Change                         Max.-Flux-Residual
  Residual-Control   Outer-Iter.   Inner-Iter.     Column Row Layer    Maximum-Head-Change  Column Row Layer    Maximum-Flux-Residual          L2-NORM 
          0                 1           2             4    7     1       0.4639175364E-01       4    7    1         0.2439236207E+01      0.5517410712E+01
          0                 2           2             4    7     1      -0.1105674409E-01       4    7    1        -0.5951343136E+00      0.1405857399E+01
          0                 3           2             5    8     1      -0.1749292964E-02       5    8    1        -0.9632316964E-01      0.2362828300E+00
          0                 4           2             4    7     1      -0.1125389830E-02       4    7    1        -0.6040433699E-01      0.1475567105E+00
          0                 5           2             4    7     1      -0.5440324302E-03       5    8    1        -0.2921636159E-01      0.7154463268E-01
          0                 6           2             4    7     1      -0.2733348837E-03       4    7    1        -0.1466887604E-01      0.3592871968E-01
          0                 7           2             4    7     1      -0.1365793698E-03       4    7    1        -0.7329622926E-02      0.1795377646E-01
          0                 8           1             4    7     1      -0.6829521647E-04       4    7    1        -0.3665075390E-02      0.8977449811E-02

    ------------------------------------------------
       NWT REQUIRED            8 OUTER ITERATIONS 
       AND A TOTAL OF         15 INNER ITERATIONS.
    ------------------------------------------------

 NO OUTPUT CONTROL FOR STRESS PERIOD   22   TIME STEP   27
 
 SOLVING FOR HEAD 
                                                   Max.-Head-Change                         Max.-Flux-Residual
  Residual-Control   Outer-Iter.   Inner-Iter.     Column Row Layer    Maximum-Head-Change  Column Row Layer    Maximum-Flux-Residual          L2-NORM 
          0                 1           2             4    7     1       0.4589080730E-01       4    7    1         0.2413236219E+01      0.5431164205E+01
          0                 2           2             4    7     1      -0.1099625561E-01       4    7    1        -0.5919033886E+00      0.1396143685E+01
          0                 3           2             5    8     1      -0.1759857657E-02       5    8    1        -0.9690874967E-01      0.2376179268E+00
          0                 4           2             4    7     1      -0.1127417522E-02       4    7    1        -0.6051328989E-01      0.1478160482E+00
          0                 5           2             4    7     1      -0.5452295058E-03       5    8    1        -0.2928091153E-01      0.7170252833E-01
          0                 6           2             4    7     1      -0.2739072578E-03       4    7    1        -0.1469960269E-01      0.3600394903E-01
          0                 7           2             4    7     1      -0.1368623887E-03       4    7    1        -0.7344815749E-02      0.1799099566E-01
          0                 8           1             4    7     1      -0.6843861224E-04       4    7    1        -0.3672772992E-02      0.8996309439E-02

    ------------------------------------------------
       NWT REQUIRED            8 OUTER ITERATIONS 
       AND A TOTAL OF         15 INNER ITERATIONS.
    ------------------------------------------------

 NO OUTPUT CONTROL FOR STRESS PERIOD   22   TIME STEP   28
 
 SOLVING FOR HEAD 
                                                   Max.-Head-Change                         Max.-Flux-Residual
  Residual-Control   Outer-Iter.   Inner-Iter.     Column Row Layer    Maximum-Head-Change  Column Row Layer    Maximum-Flux-Residual          L2-NORM 
          0                 1           2             4    7     1       0.4539107132E-01       4    7    1         0.2387261930E+01      0.5347852667E+01
          0                 2           2             4    7     1      -0.1092575264E-01       4    7    1        -0.5881312551E+00      0.1385405885E+01
          0                 3           2             5    8     1      -0.1768910812E-02       5    8    1        -0.9741077554E-01      0.2387639971E+00
          0                 4           2             4    7     1      -0.1129366477E-02       4    7    1        -0.6061799913E-01      0.1480662015E+00
          0                 5           2             4    7     1      -0.5467064147E-03       5    8    1        -0.2936042586E-01      0.7189713088E-01
          0                 6           2             4    7     1      -0.2747787885E-03       4    7    1        -0.1474638405E-01      0.3611850745E-01
          0                 7           2             4    7     1      -0.1373665763E-03       4    7    1        -0.7371877872E-02      0.1805728302E-01
          0                 8           1             4    7     1      -0.6872200813E-04       4    7    1        -0.3687983789E-02      0.9033562834E-02

    ------------------------------------------------
       NWT REQUIRED            8 OUTER ITERATIONS 
       AND A TOTAL OF         15 INNER ITERATIONS.
    ------------------------------------------------

 NO OUTPUT CONTROL FOR STRESS PERIOD   22   TIME STEP   29
 
 SOLVING FOR HEAD 
                                                   Max.-Head-Change                         Max.-Flux-Residual
  Residual-Control   Outer-Iter.   Inner-Iter.     Column Row Layer    Maximum-Head-Change  Column Row Layer    Maximum-Flux-Residual          L2-NORM 
          0                 1           2             4    7     1       0.4428230793E-01       4    7    1         0.2329459477E+01      0.5195413579E+01
          0                 2           2             4    7     1      -0.1083380635E-01       4    7    1        -0.5832048782E+00      0.1370694633E+01
          0                 3           2             5    8     1      -0.1785696483E-02       5    8    1        -0.9833811408E-01      0.2409236930E+00
          0                 4           2             4    7     1      -0.1132740088E-02       4    7    1        -0.6079914846E-01      0.1485047153E+00
          0                 5           2             4    7     1      -0.5485100518E-03       5    8    1        -0.2945742597E-01      0.7213461031E-01
          0                 6           2             4    7     1      -0.2755674609E-03       4    7    1        -0.1478871870E-01      0.3622217999E-01
          0                 7           2             4    7     1      -0.1377166323E-03       4    7    1        -0.7390668433E-02      0.1810331132E-01
          0                 8           1             4    7     1      -0.6887625621E-04       4    7    1        -0.3696263837E-02      0.9053844319E-02

    ------------------------------------------------
       NWT REQUIRED            8 OUTER ITERATIONS 
       AND A TOTAL OF         15 INNER ITERATIONS.
    ------------------------------------------------

 NO OUTPUT CONTROL FOR STRESS PERIOD   22   TIME STEP   30



 STREAM LISTING     PERIOD     22   STEP       30

 LAYER ROW COL. STREAM  RCH.  FLOW INTO     FLOW TO   FLOW OUT OF   OVRLND.     DIRECT     STREAM       STREAM     STREAM     STREAM   STREAMBED  STREAMBED
                SEG.NO.  NO.  STRM. RCH.    AQUIFER    STRM. RCH.    RUNOFF     PRECIP       ET          HEAD       DEPTH      WIDTH   CONDCTNC.   GRADIENT

   1    1    1     1     1    9.1618E+00  1.4063E-01   9.0211E+00  0.000E+00  0.000E+00  0.000E+00  1.09392E+03  8.721E-01  8.071E+00  3.632E-02  1.291E+00
   1    2    2     1     2    9.0211E+00  2.1609E-01   8.8050E+00  0.000E+00  0.000E+00  0.000E+00  1.08893E+03  8.664E-01  7.984E+00  5.589E-02  1.289E+00
   1    3    3     1     3    8.8050E+00  1.8264E-01   8.6224E+00  0.000E+00  0.000E+00  0.000E+00  1.08328E+03  8.600E-01  7.886E+00  4.732E-02  1.287E+00
   1    3    4     1     4    8.6224E+00  1.6685E-01   8.4556E+00  0.000E+00  0.000E+00  0.000E+00  1.07826E+03  8.543E-01  7.800E+00  4.329E-02  1.285E+00
   1    4    5     2     1    6.4556E+00  2.7527E-01   6.1803E+00  0.000E+00  0.000E+00  0.000E+00  1.07246E+03  5.290E-01  1.200E+01  7.800E-02  1.176E+00
   1    5    6     2     2    6.1803E+00  2.1100E-01   5.9693E+00  0.000E+00  0.000E+00  0.000E+00  1.06703E+03  5.167E-01  1.200E+01  6.000E-02  1.172E+00
   1    6    6     2     3    5.9693E+00  2.1035E-01   5.7589E+00  0.000E+00  0.000E+00  0.000E+00  1.06230E+03  5.059E-01  1.200E+01  6.000E-02  1.169E+00
   1    7    6     2     4    5.7589E+00  2.0970E-01   5.5492E+00  0.000E+00  0.000E+00  0.000E+00  1.05757E+03  4.950E-01  1.200E+01  6.000E-02  1.165E+00
   1    8    6     2     5    5.5492E+00  2.0903E-01   5.3402E+00  0.000E+00  0.000E+00  0.000E+00  1.05284E+03  4.839E-01  1.200E+01  6.000E-02  1.161E+00
   1    3    5     3     1    2.0000E+00  2.8252E-01   1.7175E+00  0.000E+00  0.000E+00  0.000E+00  1.07555E+03  1.909E+00  9.636E+00  7.227E-02  1.955E+00
   1    3    6     3     2    1.7175E+00  2.4905E-01   1.4684E+00  0.000E+00  0.000E+00  0.000E+00  1.07264E+03  1.727E+00  8.909E+00  6.682E-02  1.864E+00
   1    3    7     3     3    1.4684E+00  1.9718E-01   1.2712E+00  0.000E+00  0.000E+00  0.000E+00  1.06987E+03  1.555E+00  8.218E+00  5.547E-02  1.777E+00
   1    4    8     3     4    1.2712E+00  2.2567E-01   1.0456E+00  0.000E+00  0.000E+00  0.000E+00  1.06682E+03  1.364E+00  7.455E+00  6.709E-02  1.682E+00
   1    5    8     3     5    1.0456E+00  1.5790E-01   8.8768E-01  0.000E+00  0.000E+00  0.000E+00  1.06362E+03  1.164E+00  6.655E+00  4.991E-02  1.582E+00
   1    6    8     3     6    8.8768E-01  5.5980E-02   8.3170E-01  0.000E+00  0.000E+00  0.000E+00  1.06158E+03  1.036E+00  6.145E+00  1.844E-02  1.518E+00
   1    5   10     4     1    1.0000E+01  9.0919E-02   9.9091E+00  0.000E+00  0.000E+00  0.000E+00  1.07836E+03  6.368E-01  1.000E+01  2.500E-02  1.212E+00
   1    5    9     4     2    9.9091E+00  1.8158E-01   9.7275E+00  0.000E+00  0.000E+00  0.000E+00  1.07154E+03  6.315E-01  1.000E+01  5.000E-02  1.211E+00
   1    6    8     4     3    9.7275E+00  1.2689E-01   9.6006E+00  0.000E+00  0.000E+00  0.000E+00  1.06381E+03  6.256E-01  1.000E+01  3.500E-02  1.209E+00
   1    6    8     5     1    1.0432E+01  2.2686E-01   1.0205E+01  0.000E+00  0.000E+00  0.000E+00  1.05868E+03  6.790E-01  1.542E+01  6.166E-02  1.226E+00
   1    7    7     5     2    1.0205E+01  2.7894E-01   9.9265E+00  0.000E+00  0.000E+00  0.000E+00  1.05417E+03  6.732E-01  1.519E+01  7.594E-02  1.224E+00
   1    8    7     5     3    9.9265E+00  1.9221E-01   9.7343E+00  0.000E+00  0.000E+00  0.000E+00  1.04992E+03  6.676E-01  1.497E+01  5.241E-02  1.223E+00
   1    8    6     5     4    9.7343E+00  1.3577E-01   9.5985E+00  0.000E+00  0.000E+00  0.000E+00  1.04691E+03  6.637E-01  1.482E+01  3.706E-02  1.221E+00
   1    9    6     6     1    9.5985E+00  2.2097E-01   9.3776E+00  0.000E+00  0.000E+00  0.000E+00  1.04341E+03  6.828E-01  1.200E+01  6.000E-02  1.228E+00
   1   10    7     6     2    9.3776E+00  2.2039E-01   9.1572E+00  0.000E+00  0.000E+00  0.000E+00  1.03885E+03  6.732E-01  1.200E+01  6.000E-02  1.224E+00
   1   11    7     6     3    9.1572E+00  2.1981E-01   8.9374E+00  0.000E+00  0.000E+00  0.000E+00  1.03430E+03  6.636E-01  1.200E+01  6.000E-02  1.221E+00
   1   12    7     6     4    8.9374E+00  2.1923E-01   8.7181E+00  0.000E+00  0.000E+00  0.000E+00  1.02974E+03  6.539E-01  1.200E+01  6.000E-02  1.218E+00
   1   13    7     6     5    8.7181E+00 -4.6254E-02   8.7644E+00  0.000E+00  0.000E+00  0.000E+00  1.02656E+03  6.500E-01  1.200E+01  2.400E-01 -6.424E-02
   1   14    9     7     1    1.5000E+02  1.3731E+00   1.4863E+02  0.000E+00  0.000E+00  0.000E+00  1.03987E+03  2.288E+00  5.529E+01  5.593E-01  8.184E-01
   1   13    8     7     2    1.4863E+02  1.9397E+00   1.4669E+02  0.000E+00  0.000E+00  0.000E+00  1.03478E+03  2.279E+00  5.525E+01  6.147E-01  1.052E+00
   1   13    7     7     3    1.4669E+02  1.6399E+00   1.4505E+02  0.000E+00  0.000E+00  0.000E+00  1.02969E+03  2.269E+00  5.521E+01  5.584E-01  9.789E-01
   1   13    6     8     1    1.5381E+02  9.9216E-01   1.5282E+02  0.000E+00  0.000E+00  0.000E+00  1.02472E+03  2.840E+00  4.118E+01  4.196E-01  7.881E-01
   1   13    5     8     2    1.5282E+02  2.5333E-01   1.5257E+02  0.000E+00  0.000E+00  0.000E+00  1.01846E+03  2.836E+00  4.112E+01  4.190E-01  2.015E-01
   1   13    4     8     3    1.5257E+02 -2.1503E+00   1.5472E+02  0.000E+00  0.000E+00  0.000E+00  1.01222E+03  2.842E+00  4.121E+01  4.200E+00 -1.707E-01
   1   13    3     8     4    1.5472E+02 -3.4976E+00   1.5821E+02  0.000E+00  0.000E+00  0.000E+00  1.00599E+03  2.862E+00  4.150E+01  4.229E+00 -2.757E-01
   1   13    2     8     5    1.5821E+02 -2.5409E+00   1.6076E+02  0.000E+00  0.000E+00  0.000E+00  9.99757E+02  2.882E+00  4.179E+01  4.259E+00 -1.989E-01
   1   13    1     8     6    1.6076E+02 -1.9691E+00   1.6272E+02  0.000E+00  0.000E+00  0.000E+00  9.94773E+02  2.898E+00  4.201E+01  2.569E+00 -2.555E-01
   1    8    6     9     1    5.3402E+00  0.0000E+00   5.3402E+00  0.000E+00  0.000E+00  0.000E+00  1.08031E+03  1.555E+00  4.000E+00  0.000E+00  1.518E+00
   1    8    5     9     2    5.3402E+00  0.0000E+00   5.3402E+00  0.000E+00  0.000E+00  0.000E+00  1.07981E+03  1.555E+00  4.000E+00  0.000E+00  1.518E+00





UNSATURATED ZONE PACKAGE VOLUMETRIC BUDGET FOR  TIME STEP    30 STRESS PERIOD   22
  ------------------------------------------------------------------------------



     CUMULATIVE VOLUMES      L**3       RATES FOR THIS TIME STEP      L**3/T
     ------------------                 ------------------------

           IN:                                      IN:
           ---                                      ---
        INFILTRATION =  1042536278.0793          INFILTRATION =          15.4558

          OUT:                                     OUT:
          ----                                     ----
              UZF ET =   983891439.9795                UZF ET =          15.3449
        UZF RECHARGE =      175481.8973          UZF RECHARGE =       0.0000E+00

            IN - OUT =    58469356.2026              IN - OUT =           0.1110

          STORAGE:                                 STORAGE:
          --------                                 --------
      STORAGE CHANGE =    58469343.1174        STORAGE CHANGE =           0.1110

 PERCENT DISCREPANCY IS DIFFERENCE BETWEEN IN-OUT MINUS CHANGE IN STORAGE
 DIVIDED BY THE AVERAGE OF IN AND OUT TIMES 100

 PERCENT DISCREPANCY =           0.00     PERCENT DISCREPANCY =           0.00






1
  VOLUMETRIC BUDGET FOR AGRICULTURAL FIELDS AT  END OF TIME STEP   30, STRESS PERIOD  22
  ------------------------------------------------------------------------------

     CUMULATIVE VOLUMES      L**3       RATES FOR THIS TIME STEP      L**3/T
     ------------------                 ------------------------

           IN:                                      IN:
           ---                                      ---
               AG WELLS  =   419684928.0000                 AG WELLS  =           5.7080
      DIVERSION SEGMENTS =   379344352.0000        DIVERSION SEGMENTS =           5.3402
           GW IRRIGATION =           0.0000             GW IRRIGATION =           0.0000
           SW IRRIGATION =           0.0000             SW IRRIGATION =           0.0000
        SYSTEM LOSSES GW =           0.0000          SYSTEM LOSSES GW =           0.0000
        SYSTEM LOSSES SW =           0.0000          SYSTEM LOSSES SW =           0.0000

                TOTAL IN =   799029248.0000                  TOTAL IN =          11.0482

          OUT:                                     OUT:
          ----                                     ----
               AG WELLS  =           0.0000                 AG WELLS  =           0.0000
      DIVERSION SEGMENTS =           0.0000        DIVERSION SEGMENTS =           0.0000
           GW IRRIGATION =   419684928.0000             GW IRRIGATION =           5.7080
           SW IRRIGATION =   379352160.0000             SW IRRIGATION =           5.3403
        SYSTEM LOSSES GW =           0.0000          SYSTEM LOSSES GW =           0.0000
        SYSTEM LOSSES SW =           0.0000          SYSTEM LOSSES SW =           0.0000

               TOTAL OUT =   799037056.0000                 TOTAL OUT =          11.0483

                IN - OUT =       -7808.0000                  IN - OUT =      -1.0586E-04

     PERCENT DISCREPANCY =          -0.00         PERCENT DISCREPANCY =          -0.00



1
  VOLUMETRIC BUDGET FOR ENTIRE MODEL AT END OF TIME STEP   30, STRESS PERIOD  22
  ------------------------------------------------------------------------------

     CUMULATIVE VOLUMES      L**3       RATES FOR THIS TIME STEP      L**3/T
     ------------------                 ------------------------

           IN:                                      IN:
           ---                                      ---
             STORAGE     =   541912448.0000               STORAGE     =          12.5680
       CONSTANT HEAD     =           0.0000         CONSTANT HEAD     =           0.0000
     HEAD DEP BOUNDS     =    15932924.0000       HEAD DEP BOUNDS     =           0.2883
      STREAM LEAKAGE     =   649236160.0000        STREAM LEAKAGE     =          11.3016
        UZF RECHARGE     =      175481.8594          UZF RECHARGE     =           0.0000
               GW ET     =           0.0000                 GW ET     =           0.0000
     SURFACE LEAKAGE     =           0.0000       SURFACE LEAKAGE     =           0.0000
           AG WELLS      =           0.0000             AG WELLS      =           0.0000

                TOTAL IN =  1207256960.0000                  TOTAL IN =          24.1579

          OUT:                                     OUT:
          ----                                     ----
             STORAGE     =   202648992.0000               STORAGE     =           7.9575
       CONSTANT HEAD     =           0.0000         CONSTANT HEAD     =           0.0000
     HEAD DEP BOUNDS     =    15929379.0000       HEAD DEP BOUNDS     =           0.2865
      STREAM LEAKAGE     =   568955008.0000        STREAM LEAKAGE     =          10.2042
        UZF RECHARGE     =           0.0000          UZF RECHARGE     =           0.0000
               GW ET     =           0.0000                 GW ET     =           0.0000
     SURFACE LEAKAGE     =           0.0000       SURFACE LEAKAGE     =           0.0000
           AG WELLS      =   419684928.0000             AG WELLS      =           5.7080

               TOTAL OUT =  1207218304.0000                 TOTAL OUT =          24.1563

                IN - OUT =       38656.0000                  IN - OUT =       1.5469E-03

     PERCENT DISCREPANCY =           0.00         PERCENT DISCREPANCY =           0.01






         TIME SUMMARY AT END OF TIME STEP   30 IN STRESS PERIOD   22
                    SECONDS     MINUTES      HOURS       DAYS        YEARS
                    -----------------------------------------------------------
   TIME STEP LENGTH  87667.      1461.1      24.352      1.0147     2.77799E-03
 STRESS PERIOD TIME 2.63000E+06  43833.      730.56      30.440     8.33397E-02
         TOTAL TIME 5.53166E+07 9.21944E+05  15366.      640.24      1.7529    
1
1
                            STRESS PERIOD NO.   23, LENGTH =   2630000.    
                            -----------------------------------------------

                              NUMBER OF TIME STEPS =    30

                               MULTIPLIER FOR DELT =     1.000

                            INITIAL TIME STEP SIZE =   87666.66    

 REUSING NON-PARAMETER GHB CELLS FROM LAST STRESS PERIOD

      2 GHB CELLS

 REUSING STREAM SEGMENT DATA FROM LAST STRESS PERIOD



            AREAL INFILTRATION RATE
 READING ON UNIT   19 WITH FORMAT: (10F4.0)            

            1           2           3           4           5           6           7           8           9          10
 ........................................................................................................................
   1   1.2000E-09   0.000       0.000       0.000       0.000       0.000       0.000       0.000       0.000       0.000    
   2   2.1000E-09  2.0000E-09  8.0000E-10  8.5000E-09   0.000       0.000       0.000       0.000       0.000       0.000    
   3   5.0000E-10  1.1000E-09  8.8000E-09  5.5000E-09   0.000       0.000       0.000       0.000       0.000       0.000    
   4   8.5000E-09  1.1000E-09  1.1000E-09  1.1000E-09  2.0000E-09   0.000       0.000       0.000       0.000       0.000    
   5   8.5000E-09  1.1000E-09  1.1000E-09  1.1000E-09  1.1000E-09   0.000       0.000       0.000       0.000       0.000    
   6   8.5000E-09  5.2000E-09  2.1000E-09  1.1000E-09  1.5000E-09   0.000       0.000       0.000       0.000       0.000    
   7   8.5000E-09  5.2000E-09  2.1000E-09  1.2000E-09  2.0000E-09   0.000       0.000       0.000       0.000       0.000    
   8   5.0000E-10  5.2000E-09  2.1000E-09  1.2000E-09  5.0000E-09   0.000       0.000       0.000       0.000       0.000    
   9   5.0000E-10  5.2000E-09  2.1000E-09  1.2000E-09  5.0000E-09   0.000       0.000       0.000       0.000       0.000    
  10   5.0000E-10  5.2000E-09  2.1000E-09  1.2000E-09  5.8000E-09   0.000       0.000       0.000       0.000       0.000    
  11   1.0000E-10  1.1000E-09  1.1000E-09  1.2000E-09  5.0000E-09   0.000       0.000       0.000       0.000       0.000    
  12   1.1000E-09  1.1000E-09  1.1000E-09  1.1000E-09  2.0000E-09   0.000       0.000       0.000       0.000       0.000    
  13   1.1000E-09  2.2000E-09  2.2000E-09  2.1000E-09  1.0000E-09   0.000       0.000       0.000       0.000       0.000    
  14   2.0000E-10  5.5000E-09  5.5000E-09  5.2000E-09  1.0000E-09   0.000       0.000       0.000       0.000       0.000    
  15    0.000      8.8000E-09  8.8000E-09   0.000       0.000       0.000       0.000       0.000       0.000       0.000    

                  ET RATE =  5.000000E-09

 USING ET EXTINCTION DEPTH FROM PREVIOUS STRESS PERIOD. CURRENT PERIOD IS:      23

 USING EXTINCTION WATER CONTENT FROM PREVIOUS STRESS PERIOD. CURRENT PERIOD IS:      23

 USING AIR ENTRY PRESSURE FROM PREVIOUS STRESS PERIOD. CURRENT PERIOD IS:      23

 USING ROOT PRESSURE HEAD FROM PREVIOUS STRESS PERIOD. CURRENT PERIOD IS:      23

 USING ROOT ACTIVITY FROM PREVIOUS STRESS PERIOD. CURRENT PERIOD IS:      23

 PROCESSING AG STRESS PERIOD DATA

 READING AG STRESS PERIOD DATA

 READING IRRIGATION SEGMENT

 READING IRRIGATION WELL

 READING SUPPLEMENTAL WELL

 END PROCESSING AG STRESS PERIOD DATA OPTIONS
 
 SOLVING FOR HEAD 
                                                   Max.-Head-Change                         Max.-Flux-Residual
  Residual-Control   Outer-Iter.   Inner-Iter.     Column Row Layer    Maximum-Head-Change  Column Row Layer    Maximum-Flux-Residual          L2-NORM 
          0                 1           2             4    7     1       0.5022124621E-01       4    7    1         0.2639533400E+01      0.5886592692E+01
          0                 2           2             4    7     1      -0.4885187280E-02       4    7    1        -0.2639553630E+00      0.5886447670E+00
          0                 3           2             4    7     1       0.3326628548E-03       4    7    1         0.1847686426E-01      0.4120401104E-01
          0                 4           1             4    7     1      -0.1323696728E-04       4    7    1        -0.7557048802E-03      0.1685169217E-02

    ------------------------------------------------
       NWT REQUIRED            4 OUTER ITERATIONS 
       AND A TOTAL OF          7 INNER ITERATIONS.
    ------------------------------------------------

 NO OUTPUT CONTROL FOR STRESS PERIOD   23   TIME STEP    1
 
 SOLVING FOR HEAD 
                                                   Max.-Head-Change                         Max.-Flux-Residual
  Residual-Control   Outer-Iter.   Inner-Iter.     Column Row Layer    Maximum-Head-Change  Column Row Layer    Maximum-Flux-Residual          L2-NORM 
          0                 1           2             4    7     1       0.4963520093E-01       4    7    1         0.2609386687E+01      0.5768839773E+01
          0                 2           2             4    7     1      -0.4828181822E-02       4    7    1        -0.2609407415E+00      0.5768732333E+00
          0                 3           2             4    7     1       0.3287809870E-03       4    7    1         0.1826584018E-01      0.4038008293E-01
          0                 4           1             4    7     1      -0.1308250449E-04       4    7    1        -0.7470739929E-03      0.1651472709E-02

    ------------------------------------------------
       NWT REQUIRED            4 OUTER ITERATIONS 
       AND A TOTAL OF          7 INNER ITERATIONS.
    ------------------------------------------------

 NO OUTPUT CONTROL FOR STRESS PERIOD   23   TIME STEP    2
 
 SOLVING FOR HEAD 
                                                   Max.-Head-Change                         Max.-Flux-Residual
  Residual-Control   Outer-Iter.   Inner-Iter.     Column Row Layer    Maximum-Head-Change  Column Row Layer    Maximum-Flux-Residual          L2-NORM 
          0                 1           2             4    7     1       0.4904445924E-01       4    7    1         0.2578935595E+01      0.5655423365E+01
          0                 2           2             4    7     1      -0.4770719372E-02       4    7    1        -0.2578956721E+00      0.5655332814E+00
          0                 3           2             4    7     1       0.3248680014E-03       4    7    1         0.1805268487E-01      0.3958648571E-01
          0                 4           1             4    7     1      -0.1292680305E-04       4    7    1        -0.7383559359E-03      0.1619043059E-02

    ------------------------------------------------
       NWT REQUIRED            4 OUTER ITERATIONS 
       AND A TOTAL OF          7 INNER ITERATIONS.
    ------------------------------------------------

 NO OUTPUT CONTROL FOR STRESS PERIOD   23   TIME STEP    3
 
 SOLVING FOR HEAD 
                                                   Max.-Head-Change                         Max.-Flux-Residual
  Residual-Control   Outer-Iter.   Inner-Iter.     Column Row Layer    Maximum-Head-Change  Column Row Layer    Maximum-Flux-Residual          L2-NORM 
          0                 1           2             4    7     1       0.4845024599E-01       4    7    1         0.2548248274E+01      0.5546101549E+01
          0                 2           2             4    7     1      -0.4712919101E-02       4    7    1        -0.2548269710E+00      0.5546025010E+00
          0                 3           2             4    7     1       0.3209320129E-03       4    7    1         0.1783787540E-01      0.3882144414E-01
          0                 4           1             4    7     1      -0.1277018668E-04       4    7    1        -0.7295702308E-03      0.1587758771E-02

    ------------------------------------------------
       NWT REQUIRED            4 OUTER ITERATIONS 
       AND A TOTAL OF          7 INNER ITERATIONS.
    ------------------------------------------------

 NO OUTPUT CONTROL FOR STRESS PERIOD   23   TIME STEP    4
 
 SOLVING FOR HEAD 
                                                   Max.-Head-Change                         Max.-Flux-Residual
  Residual-Control   Outer-Iter.   Inner-Iter.     Column Row Layer    Maximum-Head-Change  Column Row Layer    Maximum-Flux-Residual          L2-NORM 
          0                 1           2             4    7     1       0.4785330426E-01       4    7    1         0.2517366361E+01      0.5440632398E+01
          0                 2           2             4    7     1      -0.4654853298E-02       4    7    1        -0.2517388024E+00      0.5440568214E+00
          0                 3           2             4    7     1       0.3169779430E-03       4    7    1         0.1762170327E-01      0.3808339131E-01
          0                 4           1             4    7     1      -0.1261285019E-04       4    7    1        -0.7207287654E-03      0.1557587152E-02

    ------------------------------------------------
       NWT REQUIRED            4 OUTER ITERATIONS 
       AND A TOTAL OF          7 INNER ITERATIONS.
    ------------------------------------------------

 NO OUTPUT CONTROL FOR STRESS PERIOD   23   TIME STEP    5
 
 SOLVING FOR HEAD 
                                                   Max.-Head-Change                         Max.-Flux-Residual
  Residual-Control   Outer-Iter.   Inner-Iter.     Column Row Layer    Maximum-Head-Change  Column Row Layer    Maximum-Flux-Residual          L2-NORM 
          0                 1           2             4    7     1       0.4725484912E-01       4    7    1         0.2486357546E+01      0.5338804130E+01
          0                 2           2             4    7     1      -0.4596640173E-02       4    7    1        -0.2486379362E+00      0.5338750855E+00
          0                 3           2             4    7     1       0.3130138427E-03       4    7    1         0.1740464241E-01      0.3737075422E-01
          0                 4           1             4    7     1      -0.1245511467E-04       4    7    1        -0.7118509543E-03      0.1528437022E-02

    ------------------------------------------------
       NWT REQUIRED            4 OUTER ITERATIONS 
       AND A TOTAL OF          7 INNER ITERATIONS.
    ------------------------------------------------

 NO OUTPUT CONTROL FOR STRESS PERIOD   23   TIME STEP    6
 
 SOLVING FOR HEAD 
                                                   Max.-Head-Change                         Max.-Flux-Residual
  Residual-Control   Outer-Iter.   Inner-Iter.     Column Row Layer    Maximum-Head-Change  Column Row Layer    Maximum-Flux-Residual          L2-NORM 
          0                 1           2             4    7     1       0.4665560608E-01       4    7    1         0.2455262956E+01      0.5240403081E+01
          0                 2           2             4    7     1      -0.4538350307E-02       4    7    1        -0.2455284859E+00      0.5240358776E+00
          0                 3           2             4    7     1       0.3090445177E-03       4    7    1         0.1718698072E-01      0.3668206216E-01
          0                 4           1             4    7     1      -0.1229717181E-04       4    7    1        -0.7029485832E-03      0.1500249500E-02

    ------------------------------------------------
       NWT REQUIRED            4 OUTER ITERATIONS 
       AND A TOTAL OF          7 INNER ITERATIONS.
    ------------------------------------------------

 NO OUTPUT CONTROL FOR STRESS PERIOD   23   TIME STEP    7
 
 SOLVING FOR HEAD 
                                                   Max.-Head-Change                         Max.-Flux-Residual
  Residual-Control   Outer-Iter.   Inner-Iter.     Column Row Layer    Maximum-Head-Change  Column Row Layer    Maximum-Flux-Residual          L2-NORM 
          0                 1           2             4    7     1       0.4605638635E-01       4    7    1         0.2424127500E+01      0.5145269447E+01
          0                 2           2             4    7     1      -0.4480062618E-02       4    7    1        -0.2424149429E+00      0.5145233202E+00
          0                 3           2             4    7     1       0.3050753416E-03       4    7    1         0.1696903257E-01      0.3601625612E-01
          0                 4           1             4    7     1      -0.1213923482E-04       4    7    1        -0.6940345111E-03      0.1473039516E-02

    ------------------------------------------------
       NWT REQUIRED            4 OUTER ITERATIONS 
       AND A TOTAL OF          7 INNER ITERATIONS.
    ------------------------------------------------

 NO OUTPUT CONTROL FOR STRESS PERIOD   23   TIME STEP    8
 
 SOLVING FOR HEAD 
                                                   Max.-Head-Change                         Max.-Flux-Residual
  Residual-Control   Outer-Iter.   Inner-Iter.     Column Row Layer    Maximum-Head-Change  Column Row Layer    Maximum-Flux-Residual          L2-NORM 
          0                 1           2             4    7     1       0.4545792866E-01       4    7    1         0.2392993237E+01      0.5053208615E+01
          0                 2           2             4    7     1      -0.4421848974E-02       4    7    1        -0.2393015138E+00      0.5053179152E+00
          0                 3           2             4    7     1       0.3011112085E-03       4    7    1         0.1675109248E-01      0.3537193144E-01
          0                 4           1             4    7     1      -0.1198149815E-04       4    7    1        -0.6851207395E-03      0.1446691757E-02

    ------------------------------------------------
       NWT REQUIRED            4 OUTER ITERATIONS 
       AND A TOTAL OF          7 INNER ITERATIONS.
    ------------------------------------------------

 NO OUTPUT CONTROL FOR STRESS PERIOD   23   TIME STEP    9
 
 SOLVING FOR HEAD 
                                                   Max.-Head-Change                         Max.-Flux-Residual
  Residual-Control   Outer-Iter.   Inner-Iter.     Column Row Layer    Maximum-Head-Change  Column Row Layer    Maximum-Flux-Residual          L2-NORM 
          0                 1           2             4    7     1       0.4486091505E-01       4    7    1         0.2361898470E+01      0.4964071757E+01
          0                 2           2             4    7     1      -0.4363775728E-02       4    7    1        -0.2361920295E+00      0.4964047291E+00
          0                 3           2             4    7     1       0.2971566369E-03       4    7    1         0.1653342856E-01      0.3474806456E-01
          0                 4           1             4    7     1      -0.1182414220E-04       4    7    1        -0.6762182697E-03      0.1421179400E-02

    ------------------------------------------------
       NWT REQUIRED            4 OUTER ITERATIONS 
       AND A TOTAL OF          7 INNER ITERATIONS.
    ------------------------------------------------

 NO OUTPUT CONTROL FOR STRESS PERIOD   23   TIME STEP   10
 
 SOLVING FOR HEAD 
                                                   Max.-Head-Change                         Max.-Flux-Residual
  Residual-Control   Outer-Iter.   Inner-Iter.     Column Row Layer    Maximum-Head-Change  Column Row Layer    Maximum-Flux-Residual          L2-NORM 
          0                 1           2             4    7     1       0.4426597224E-01       4    7    1         0.2330878562E+01      0.4877716221E+01
          0                 2           2             4    7     1      -0.4305903850E-02       4    7    1        -0.2330900268E+00      0.4877697506E+00
          0                 3           2             4    7     1       0.2932157780E-03       4    7    1         0.1631628839E-01      0.3414364320E-01
          0                 4           1             4    7     1      -0.1166733150E-04       4    7    1        -0.6673372222E-03      0.1396464053E-02

    ------------------------------------------------
       NWT REQUIRED            4 OUTER ITERATIONS 
       AND A TOTAL OF          7 INNER ITERATIONS.
    ------------------------------------------------

 NO OUTPUT CONTROL FOR STRESS PERIOD   23   TIME STEP   11
 
 SOLVING FOR HEAD 
                                                   Max.-Head-Change                         Max.-Flux-Residual
  Residual-Control   Outer-Iter.   Inner-Iter.     Column Row Layer    Maximum-Head-Change  Column Row Layer    Maximum-Flux-Residual          L2-NORM 
          0                 1           2             4    7     1       0.4367367342E-01       4    7    1         0.2299966008E+01      0.4793991663E+01
          0                 2           2             4    7     1      -0.4248289103E-02       4    7    1        -0.2299987556E+00      0.4793977460E+00
          0                 3           2             4    7     1       0.2892924296E-03       4    7    1         0.1609989947E-01      0.3355764547E-01
          0                 4           1             4    7     1      -0.1151121767E-04       4    7    1        -0.6584868902E-03      0.1372492140E-02

    ------------------------------------------------
       NWT REQUIRED            4 OUTER ITERATIONS 
       AND A TOTAL OF          7 INNER ITERATIONS.
    ------------------------------------------------

 NO OUTPUT CONTROL FOR STRESS PERIOD   23   TIME STEP   12
 
 SOLVING FOR HEAD 
                                                   Max.-Head-Change                         Max.-Flux-Residual
  Residual-Control   Outer-Iter.   Inner-Iter.     Column Row Layer    Maximum-Head-Change  Column Row Layer    Maximum-Flux-Residual          L2-NORM 
          0                 1           2             4    7     1       0.4308467756E-01       4    7    1         0.2269197824E+01      0.4712788080E+01
          0                 2           2             4    7     1      -0.4190995594E-02       4    7    1        -0.2269219182E+00      0.4712777528E+00
          0                 3           2             4    7     1       0.2853909566E-03       4    7    1         0.1588452092E-01      0.3298926740E-01
          0                 4           1             4    7     1      -0.1135597455E-04       4    7    1        -0.6496779060E-03      0.1349241389E-02

    ------------------------------------------------
       NWT REQUIRED            4 OUTER ITERATIONS 
       AND A TOTAL OF          7 INNER ITERATIONS.
    ------------------------------------------------

 NO OUTPUT CONTROL FOR STRESS PERIOD   23   TIME STEP   13
 
 SOLVING FOR HEAD 
                                                   Max.-Head-Change                         Max.-Flux-Residual
  Residual-Control   Outer-Iter.   Inner-Iter.     Column Row Layer    Maximum-Head-Change  Column Row Layer    Maximum-Flux-Residual          L2-NORM 
          0                 1           2             4    7     1       0.4249932036E-01       4    7    1         0.2238593584E+01      0.4633973345E+01
          0                 2           2             4    7     1      -0.4134055982E-02       4    7    1        -0.2238614721E+00      0.4633966141E+00
          0                 3           2             4    7     1       0.2815135830E-03       4    7    1         0.1567028981E-01      0.3243761812E-01
          0                 4           1             4    7     1      -0.1120169021E-04       4    7    1        -0.6409158291E-03      0.1326681081E-02

    ------------------------------------------------
       NWT REQUIRED            4 OUTER ITERATIONS 
       AND A TOTAL OF          7 INNER ITERATIONS.
    ------------------------------------------------

 NO OUTPUT CONTROL FOR STRESS PERIOD   23   TIME STEP   14
 
 SOLVING FOR HEAD 
                                                   Max.-Head-Change                         Max.-Flux-Residual
  Residual-Control   Outer-Iter.   Inner-Iter.     Column Row Layer    Maximum-Head-Change  Column Row Layer    Maximum-Flux-Residual          L2-NORM 
          0                 1           2             4    7     1       0.4191803309E-01       4    7    1         0.2208177991E+01      0.4557436338E+01
          0                 2           2             4    7     1      -0.4077512226E-02       4    7    1        -0.2208198881E+00      0.4557431870E+00
          0                 3           2             4    7     1       0.2776631664E-03       4    7    1         0.1545737907E-01      0.3190190279E-01
          0                 4           1             4    7     1      -0.1104847863E-04       4    7    1        -0.6322077807E-03      0.1304776060E-02

    ------------------------------------------------
       NWT REQUIRED            4 OUTER ITERATIONS 
       AND A TOTAL OF          7 INNER ITERATIONS.
    ------------------------------------------------

 NO OUTPUT CONTROL FOR STRESS PERIOD   23   TIME STEP   15
 
 SOLVING FOR HEAD 
                                                   Max.-Head-Change                         Max.-Flux-Residual
  Residual-Control   Outer-Iter.   Inner-Iter.     Column Row Layer    Maximum-Head-Change  Column Row Layer    Maximum-Flux-Residual          L2-NORM 
          0                 1           2             4    7     1       0.4134121364E-01       4    7    1         0.2177973404E+01      0.4483085975E+01
          0                 2           2             4    7     1      -0.4021403032E-02       4    7    1        -0.2177994024E+00      0.4483083666E+00
          0                 3           2             4    7     1       0.2738423423E-03       4    7    1         0.1524594525E-01      0.3138149461E-01
          0                 4           1             4    7     1      -0.1089644446E-04       4    7    1        -0.6235601245E-03      0.1283498392E-02

    ------------------------------------------------
       NWT REQUIRED            4 OUTER ITERATIONS 
       AND A TOTAL OF          7 INNER ITERATIONS.
    ------------------------------------------------

 NO OUTPUT CONTROL FOR STRESS PERIOD   23   TIME STEP   16
 
 SOLVING FOR HEAD 
                                                   Max.-Head-Change                         Max.-Flux-Residual
  Residual-Control   Outer-Iter.   Inner-Iter.     Column Row Layer    Maximum-Head-Change  Column Row Layer    Maximum-Flux-Residual          L2-NORM 
          0                 1           2             4    7     1       0.4076934872E-01       4    7    1         0.2148007755E+01      0.4410814937E+01
          0                 2           2             4    7     1      -0.3965775750E-02       4    7    1        -0.2148028086E+00      0.4410814843E+00
          0                 3           2             4    7     1       0.2700543349E-03       4    7    1         0.1503618387E-01      0.3087561217E-01
          0                 4           1             4    7     1      -0.1074571630E-04       4    7    1        -0.6149808746E-03      0.1262809509E-02

    ------------------------------------------------
       NWT REQUIRED            4 OUTER ITERATIONS 
       AND A TOTAL OF          7 INNER ITERATIONS.
    ------------------------------------------------

 NO OUTPUT CONTROL FOR STRESS PERIOD   23   TIME STEP   17
 
 SOLVING FOR HEAD 
                                                   Max.-Head-Change                         Max.-Flux-Residual
  Residual-Control   Outer-Iter.   Inner-Iter.     Column Row Layer    Maximum-Head-Change  Column Row Layer    Maximum-Flux-Residual          L2-NORM 
          0                 1           2             4    7     1       0.4020261244E-01       4    7    1         0.2118291680E+01      0.4340531266E+01
          0                 2           2             4    7     1      -0.3910647320E-02       4    7    1        -0.2118311705E+00      0.4340532859E+00
          0                 3           2             4    7     1       0.2663002974E-03       4    7    1         0.1482816941E-01      0.3038365785E-01
          0                 4           1             4    7     1      -0.1059633904E-04       4    7    1        -0.6064730583E-03      0.1242689383E-02

    ------------------------------------------------
       NWT REQUIRED            4 OUTER ITERATIONS 
       AND A TOTAL OF          7 INNER ITERATIONS.
    ------------------------------------------------

 NO OUTPUT CONTROL FOR STRESS PERIOD   23   TIME STEP   18
 
 SOLVING FOR HEAD 
                                                   Max.-Head-Change                         Max.-Flux-Residual
  Residual-Control   Outer-Iter.   Inner-Iter.     Column Row Layer    Maximum-Head-Change  Column Row Layer    Maximum-Flux-Residual          L2-NORM 
          0                 1           2             4    7     1       0.3964142741E-01       4    7    1         0.2088848806E+01      0.4272157140E+01
          0                 2           2             4    7     1      -0.3856058853E-02       4    7    1        -0.2088868512E+00      0.4272160161E+00
          0                 3           2             4    7     1       0.2625830298E-03       4    7    1         0.1462206725E-01      0.2990506950E-01
          0                 4           1             4    7     1      -0.1044842598E-04       4    7    1        -0.5980434794E-03      0.1223108673E-02

    ------------------------------------------------
       NWT REQUIRED            4 OUTER ITERATIONS 
       AND A TOTAL OF          7 INNER ITERATIONS.
    ------------------------------------------------

 NO OUTPUT CONTROL FOR STRESS PERIOD   23   TIME STEP   19
 
 SOLVING FOR HEAD 
                                                   Max.-Head-Change                         Max.-Flux-Residual
  Residual-Control   Outer-Iter.   Inner-Iter.     Column Row Layer    Maximum-Head-Change  Column Row Layer    Maximum-Flux-Residual          L2-NORM 
          0                 1           2             4    7     1       0.3908590281E-01       4    7    1         0.2059686444E+01      0.4205602945E+01
          0                 2           2             4    7     1      -0.3802020975E-02       4    7    1        -0.2059705819E+00      0.4205607170E+00
          0                 3           2             4    7     1       0.2589032554E-03       4    7    1         0.1441792864E-01      0.2943920617E-01
          0                 4           1             4    7     1      -0.1030200382E-04       4    7    1        -0.5896941871E-03      0.1204059940E-02

    ------------------------------------------------
       NWT REQUIRED            4 OUTER ITERATIONS 
       AND A TOTAL OF          7 INNER ITERATIONS.
    ------------------------------------------------

 NO OUTPUT CONTROL FOR STRESS PERIOD   23   TIME STEP   20
 
 SOLVING FOR HEAD 
                                                   Max.-Head-Change                         Max.-Flux-Residual
  Residual-Control   Outer-Iter.   Inner-Iter.     Column Row Layer    Maximum-Head-Change  Column Row Layer    Maximum-Flux-Residual          L2-NORM 
          0                 1           2             4    7     1       0.3853640023E-01       4    7    1         0.2030824860E+01      0.4140804939E+01
          0                 2           2             4    7     1      -0.3748568859E-02       4    7    1        -0.2030843892E+00      0.4140810149E+00
          0                 3           2             4    7     1       0.2552633691E-03       4    7    1         0.1421589537E-01      0.2898563614E-01
          0                 4           1             4    7     1      -0.1015716961E-04       4    7    1        -0.5814310121E-03      0.1185509412E-02

    ------------------------------------------------
       NWT REQUIRED            4 OUTER ITERATIONS 
       AND A TOTAL OF          7 INNER ITERATIONS.
    ------------------------------------------------

 NO OUTPUT CONTROL FOR STRESS PERIOD   23   TIME STEP   21
 
 SOLVING FOR HEAD 
                                                   Max.-Head-Change                         Max.-Flux-Residual
  Residual-Control   Outer-Iter.   Inner-Iter.     Column Row Layer    Maximum-Head-Change  Column Row Layer    Maximum-Flux-Residual          L2-NORM 
          0                 1           2             4    7     1       0.3799311028E-01       4    7    1         0.2002275497E+01      0.4077685734E+01
          0                 2           2             4    7     1      -0.3695721052E-02       4    7    1        -0.2002294181E+00      0.4077691732E+00
          0                 3           2             4    7     1       0.2516646344E-03       4    7    1         0.1401604763E-01      0.2854381833E-01
          0                 4           1             4    7     1      -0.1001397264E-04       4    7    1        -0.5732572313E-03      0.1167442866E-02

    ------------------------------------------------
       NWT REQUIRED            4 OUTER ITERATIONS 
       AND A TOTAL OF          7 INNER ITERATIONS.
    ------------------------------------------------

 NO OUTPUT CONTROL FOR STRESS PERIOD   23   TIME STEP   22
 
 SOLVING FOR HEAD 
                                                   Max.-Head-Change                         Max.-Flux-Residual
  Residual-Control   Outer-Iter.   Inner-Iter.     Column Row Layer    Maximum-Head-Change  Column Row Layer    Maximum-Flux-Residual          L2-NORM 
          0                 1           2             4    7     1       0.3745619633E-01       4    7    1         0.1974048242E+01      0.4016183503E+01
          0                 2           2             4    7     1      -0.3643493447E-02       4    7    1        -0.1974066570E+00      0.4016190158E+00
          0                 3           2             4    7     1       0.2481081330E-03       4    7    1         0.1381845460E-01      0.2811331126E-01
          0                 4           1             4    7     1      -0.9872456180E-05       4    7    1        -0.5651756692E-03      0.1149840676E-02

    ------------------------------------------------
       NWT REQUIRED            4 OUTER ITERATIONS 
       AND A TOTAL OF          7 INNER ITERATIONS.
    ------------------------------------------------

 NO OUTPUT CONTROL FOR STRESS PERIOD   23   TIME STEP   23
 
 SOLVING FOR HEAD 
                                                   Max.-Head-Change                         Max.-Flux-Residual
  Residual-Control   Outer-Iter.   Inner-Iter.     Column Row Layer    Maximum-Head-Change  Column Row Layer    Maximum-Flux-Residual          L2-NORM 
          0                 1           2             4    7     1       0.3692580350E-01       4    7    1         0.1946151564E+01      0.3956233714E+01
          0                 2           2             4    7     1      -0.3591900162E-02       4    7    1        -0.1946169532E+00      0.3956240878E+00
          0                 3           2             4    7     1       0.2445948268E-03       4    7    1         0.1362317561E-01      0.2769367030E-01
          0                 4           1             4    7     1      -0.9732658231E-05       4    7    1        -0.5571887386E-03      0.1132672163E-02

    ------------------------------------------------
       NWT REQUIRED            4 OUTER ITERATIONS 
       AND A TOTAL OF          7 INNER ITERATIONS.
    ------------------------------------------------

 NO OUTPUT CONTROL FOR STRESS PERIOD   23   TIME STEP   24
 
 SOLVING FOR HEAD 
                                                   Max.-Head-Change                         Max.-Flux-Residual
  Residual-Control   Outer-Iter.   Inner-Iter.     Column Row Layer    Maximum-Head-Change  Column Row Layer    Maximum-Flux-Residual          L2-NORM 
          0                 1           2             4    7     1       0.3640205045E-01       4    7    1         0.1918592987E+01      0.3897767889E+01
          0                 2           2             4    7     1      -0.3540952741E-02       4    7    1        -0.1918610592E+00      0.3897775417E+00
          0                 3           2             4    7     1       0.2411255012E-03       4    7    1         0.1343026327E-01      0.2728441489E-01
          0                 4           1             4    7     1      -0.9594610337E-05       4    7    1        -0.5492985988E-03      0.1115935221E-02

    ------------------------------------------------
       NWT REQUIRED            4 OUTER ITERATIONS 
       AND A TOTAL OF          7 INNER ITERATIONS.
    ------------------------------------------------

 NO OUTPUT CONTROL FOR STRESS PERIOD   23   TIME STEP   25
 
 SOLVING FOR HEAD 
                                                   Max.-Head-Change                         Max.-Flux-Residual
  Residual-Control   Outer-Iter.   Inner-Iter.     Column Row Layer    Maximum-Head-Change  Column Row Layer    Maximum-Flux-Residual          L2-NORM 
          0                 1           2             4    7     1       0.3588503559E-01       4    7    1         0.1891378665E+01      0.3840739113E+01
          0                 2           2             4    7     1      -0.3490660760E-02       4    7    1        -0.1891395905E+00      0.3840746972E+00
          0                 3           2             4    7     1       0.2377008092E-03       4    7    1         0.1323976074E-01      0.2688521118E-01
          0                 4           1             4    7     1      -0.9458338517E-05       4    7    1        -0.5415070336E-03      0.1099606395E-02

    ------------------------------------------------
       NWT REQUIRED            4 OUTER ITERATIONS 
       AND A TOTAL OF          7 INNER ITERATIONS.
    ------------------------------------------------

 NO OUTPUT CONTROL FOR STRESS PERIOD   23   TIME STEP   26
 
 SOLVING FOR HEAD 
                                                   Max.-Head-Change                         Max.-Flux-Residual
  Residual-Control   Outer-Iter.   Inner-Iter.     Column Row Layer    Maximum-Head-Change  Column Row Layer    Maximum-Flux-Residual          L2-NORM 
          0                 1           2             4    7     1       0.3537498056E-01       4    7    1         0.1864521005E+01      0.3785101831E+01
          0                 2           2             4    7     1      -0.3441045779E-02       4    7    1        -0.1864537879E+00      0.3785109922E+00
          0                 3           2             4    7     1       0.2343222184E-03       4    7    1         0.1305175483E-01      0.2649575851E-01
          0                 4           1             4    7     1      -0.9323901600E-05       4    7    1        -0.5338175906E-03      0.1083681421E-02

    ------------------------------------------------
       NWT REQUIRED            4 OUTER ITERATIONS 
       AND A TOTAL OF          7 INNER ITERATIONS.
    ------------------------------------------------

 NO OUTPUT CONTROL FOR STRESS PERIOD   23   TIME STEP   27
 
 SOLVING FOR HEAD 
                                                   Max.-Head-Change                         Max.-Flux-Residual
  Residual-Control   Outer-Iter.   Inner-Iter.     Column Row Layer    Maximum-Head-Change  Column Row Layer    Maximum-Flux-Residual          L2-NORM 
          0                 1           2             4    7     1       0.3487180633E-01       4    7    1         0.1838016889E+01      0.3730793629E+01
          0                 2           2             4    7     1      -0.3392100113E-02       4    7    1        -0.1838033399E+00      0.3730801904E+00
          0                 3           2             4    7     1       0.2309892050E-03       4    7    1         0.1286622374E-01      0.2611559916E-01
          0                 4           1             4    7     1      -0.9191277368E-05       4    7    1        -0.5262293366E-03      0.1068122071E-02

    ------------------------------------------------
       NWT REQUIRED            4 OUTER ITERATIONS 
       AND A TOTAL OF          7 INNER ITERATIONS.
    ------------------------------------------------

 NO OUTPUT CONTROL FOR STRESS PERIOD   23   TIME STEP   28
 
 SOLVING FOR HEAD 
                                                   Max.-Head-Change                         Max.-Flux-Residual
  Residual-Control   Outer-Iter.   Inner-Iter.     Column Row Layer    Maximum-Head-Change  Column Row Layer    Maximum-Flux-Residual          L2-NORM 
          0                 1           2             4    7     1       0.3437556381E-01       4    7    1         0.1811869525E+01      0.3677768044E+01
          0                 2           2             4    7     1      -0.3343828714E-02       4    7    1        -0.1811885670E+00      0.3677776425E+00
          0                 3           2             4    7     1       0.2277021071E-03       4    7    1         0.1268318989E-01      0.2574443231E-01
          0                 4           1             4    7     1      -0.9060481131E-05       4    7    1        -0.5187432707E-03      0.1052946314E-02

    ------------------------------------------------
       NWT REQUIRED            4 OUTER ITERATIONS 
       AND A TOTAL OF          7 INNER ITERATIONS.
    ------------------------------------------------

 NO OUTPUT CONTROL FOR STRESS PERIOD   23   TIME STEP   29
 
 SOLVING FOR HEAD 
                                                   Max.-Head-Change                         Max.-Flux-Residual
  Residual-Control   Outer-Iter.   Inner-Iter.     Column Row Layer    Maximum-Head-Change  Column Row Layer    Maximum-Flux-Residual          L2-NORM 
          0                 1           2             4    7     1       0.3388642106E-01       4    7    1         0.1786088860E+01      0.3625983826E+01
          0                 2           2             4    7     1      -0.3296247932E-02       4    7    1        -0.1786104642E+00      0.3625992160E+00
          0                 3           2             4    7     1       0.2244620374E-03       4    7    1         0.1250272296E-01      0.2538193930E-01
          0                 4           1             4    7     1      -0.8931555603E-05       4    7    1        -0.5113621528E-03      0.1038122362E-02

    ------------------------------------------------
       NWT REQUIRED            4 OUTER ITERATIONS 
       AND A TOTAL OF          7 INNER ITERATIONS.
    ------------------------------------------------

 NO OUTPUT CONTROL FOR STRESS PERIOD   23   TIME STEP   30



 STREAM LISTING     PERIOD     23   STEP       30

 LAYER ROW COL. STREAM  RCH.  FLOW INTO     FLOW TO   FLOW OUT OF   OVRLND.     DIRECT     STREAM       STREAM     STREAM     STREAM   STREAMBED  STREAMBED
                SEG.NO.  NO.  STRM. RCH.    AQUIFER    STRM. RCH.    RUNOFF     PRECIP       ET          HEAD       DEPTH      WIDTH   CONDCTNC.   GRADIENT

   1    1    1     1     1    8.2501E+00  1.3178E-01   8.1183E+00  0.000E+00  0.000E+00  0.000E+00  1.09389E+03  8.424E-01  7.622E+00  3.430E-02  1.281E+00
   1    2    2     1     2    8.1183E+00  2.0241E-01   7.9159E+00  0.000E+00  0.000E+00  0.000E+00  1.08890E+03  8.367E-01  7.537E+00  5.276E-02  1.279E+00
   1    3    3     1     3    7.9159E+00  1.7099E-01   7.7449E+00  0.000E+00  0.000E+00  0.000E+00  1.08325E+03  8.302E-01  7.440E+00  4.464E-02  1.277E+00
   1    3    4     1     4    7.7449E+00  1.5612E-01   7.5888E+00  0.000E+00  0.000E+00  0.000E+00  1.07823E+03  8.244E-01  7.355E+00  4.082E-02  1.275E+00
   1    4    5     2     1    5.5888E+00  2.7178E-01   5.3170E+00  0.000E+00  0.000E+00  0.000E+00  1.07242E+03  4.843E-01  1.200E+01  7.800E-02  1.161E+00
   1    5    6     2     2    5.3170E+00  2.0828E-01   5.1088E+00  0.000E+00  0.000E+00  0.000E+00  1.06698E+03  4.714E-01  1.200E+01  6.000E-02  1.157E+00
   1    6    6     2     3    5.1088E+00  2.0760E-01   4.9012E+00  0.000E+00  0.000E+00  0.000E+00  1.06225E+03  4.600E-01  1.200E+01  6.000E-02  1.153E+00
   1    7    6     2     4    4.9012E+00  2.0691E-01   4.6943E+00  0.000E+00  0.000E+00  0.000E+00  1.05752E+03  4.485E-01  1.200E+01  6.000E-02  1.150E+00
   1    8    6     2     5    4.6943E+00  2.0621E-01   4.4880E+00  0.000E+00  0.000E+00  0.000E+00  1.05280E+03  4.368E-01  1.200E+01  6.000E-02  1.146E+00
   1    3    5     3     1    2.0000E+00  2.8252E-01   1.7175E+00  0.000E+00  0.000E+00  0.000E+00  1.07555E+03  1.909E+00  9.636E+00  7.227E-02  1.955E+00
   1    3    6     3     2    1.7175E+00  2.4905E-01   1.4684E+00  0.000E+00  0.000E+00  0.000E+00  1.07264E+03  1.727E+00  8.909E+00  6.682E-02  1.864E+00
   1    3    7     3     3    1.4684E+00  1.9718E-01   1.2712E+00  0.000E+00  0.000E+00  0.000E+00  1.06987E+03  1.555E+00  8.218E+00  5.547E-02  1.777E+00
   1    4    8     3     4    1.2712E+00  2.2567E-01   1.0456E+00  0.000E+00  0.000E+00  0.000E+00  1.06682E+03  1.364E+00  7.455E+00  6.709E-02  1.682E+00
   1    5    8     3     5    1.0456E+00  1.5790E-01   8.8768E-01  0.000E+00  0.000E+00  0.000E+00  1.06362E+03  1.164E+00  6.655E+00  4.991E-02  1.582E+00
   1    6    8     3     6    8.8768E-01  5.5980E-02   8.3170E-01  0.000E+00  0.000E+00  0.000E+00  1.06158E+03  1.036E+00  6.145E+00  1.844E-02  1.518E+00
   1    5   10     4     1    1.0000E+01  9.0919E-02   9.9091E+00  0.000E+00  0.000E+00  0.000E+00  1.07836E+03  6.368E-01  1.000E+01  2.500E-02  1.212E+00
   1    5    9     4     2    9.9091E+00  1.8158E-01   9.7275E+00  0.000E+00  0.000E+00  0.000E+00  1.07154E+03  6.315E-01  1.000E+01  5.000E-02  1.211E+00
   1    6    8     4     3    9.7275E+00  1.2689E-01   9.6006E+00  0.000E+00  0.000E+00  0.000E+00  1.06381E+03  6.256E-01  1.000E+01  3.500E-02  1.209E+00
   1    6    8     5     1    1.0432E+01  2.2686E-01   1.0205E+01  0.000E+00  0.000E+00  0.000E+00  1.05868E+03  6.790E-01  1.542E+01  6.166E-02  1.226E+00
   1    7    7     5     2    1.0205E+01  2.7894E-01   9.9265E+00  0.000E+00  0.000E+00  0.000E+00  1.05417E+03  6.732E-01  1.519E+01  7.594E-02  1.224E+00
   1    8    7     5     3    9.9265E+00  1.9221E-01   9.7343E+00  0.000E+00  0.000E+00  0.000E+00  1.04992E+03  6.676E-01  1.497E+01  5.241E-02  1.223E+00
   1    8    6     5     4    9.7343E+00  1.3577E-01   9.5985E+00  0.000E+00  0.000E+00  0.000E+00  1.04691E+03  6.637E-01  1.482E+01  3.706E-02  1.221E+00
   1    9    6     6     1    1.4087E+01  2.3167E-01   1.3855E+01  0.000E+00  0.000E+00  0.000E+00  1.04359E+03  8.612E-01  1.200E+01  6.000E-02  1.287E+00
   1   10    7     6     2    1.3855E+01  2.3116E-01   1.3624E+01  0.000E+00  0.000E+00  0.000E+00  1.03903E+03  8.526E-01  1.200E+01  6.000E-02  1.284E+00
   1   11    7     6     3    1.3624E+01  2.3064E-01   1.3393E+01  0.000E+00  0.000E+00  0.000E+00  1.03448E+03  8.440E-01  1.200E+01  6.000E-02  1.281E+00
   1   12    7     6     4    1.3393E+01  2.3012E-01   1.3163E+01  0.000E+00  0.000E+00  0.000E+00  1.02993E+03  8.353E-01  1.200E+01  6.000E-02  1.278E+00
   1   13    7     6     5    1.3163E+01 -4.1508E-03   1.3167E+01  0.000E+00  0.000E+00  0.000E+00  1.02674E+03  8.310E-01  1.200E+01  2.400E-01 -5.765E-03
   1   14    9     7     1    1.5000E+02  1.3738E+00   1.4863E+02  0.000E+00  0.000E+00  0.000E+00  1.03987E+03  2.288E+00  5.529E+01  5.593E-01  8.187E-01
   1   13    8     7     2    1.4863E+02  1.9414E+00   1.4668E+02  0.000E+00  0.000E+00  0.000E+00  1.03478E+03  2.279E+00  5.525E+01  6.147E-01  1.053E+00
   1   13    7     7     3    1.4668E+02  1.6367E+00   1.4505E+02  0.000E+00  0.000E+00  0.000E+00  1.02969E+03  2.269E+00  5.521E+01  5.584E-01  9.771E-01
   1   13    6     8     1    1.5822E+02  1.0175E+00   1.5720E+02  0.000E+00  0.000E+00  0.000E+00  1.02475E+03  2.870E+00  4.162E+01  4.241E-01  7.997E-01
   1   13    5     8     2    1.5720E+02  2.7215E-01   1.5693E+02  0.000E+00  0.000E+00  0.000E+00  1.01849E+03  2.866E+00  4.155E+01  4.235E-01  2.142E-01
   1   13    4     8     3    1.5693E+02 -2.0945E+00   1.5902E+02  0.000E+00  0.000E+00  0.000E+00  1.01225E+03  2.872E+00  4.165E+01  4.244E+00 -1.645E-01
   1   13    3     8     4    1.5902E+02 -3.4700E+00   1.6249E+02  0.000E+00  0.000E+00  0.000E+00  1.00602E+03  2.891E+00  4.192E+01  4.272E+00 -2.708E-01
   1   13    2     8     5    1.6249E+02 -2.5226E+00   1.6501E+02  0.000E+00  0.000E+00  0.000E+00  9.99786E+02  2.911E+00  4.221E+01  4.301E+00 -1.955E-01
   1   13    1     8     6    1.6501E+02 -1.9536E+00   1.6697E+02  0.000E+00  0.000E+00  0.000E+00  9.94801E+02  2.926E+00  4.243E+01  2.594E+00 -2.510E-01
   1    8    6     9     1    0.0000E+00  0.0000E+00   0.0000E+00  0.000E+00  0.000E+00  0.000E+00  1.07875E+03  0.000E+00  4.000E+00  0.000E+00  1.000E+00
   1    8    5     9     2    0.0000E+00  0.0000E+00   0.0000E+00  0.000E+00  0.000E+00  0.000E+00  1.07825E+03  0.000E+00  4.000E+00  0.000E+00  1.000E+00





UNSATURATED ZONE PACKAGE VOLUMETRIC BUDGET FOR  TIME STEP    30 STRESS PERIOD   23
  ------------------------------------------------------------------------------



     CUMULATIVE VOLUMES      L**3       RATES FOR THIS TIME STEP      L**3/T
     ------------------                 ------------------------

           IN:                                      IN:
           ---                                      ---
        INFILTRATION =  1054128002.6375          INFILTRATION =           4.4075

          OUT:                                     OUT:
          ----                                     ----
              UZF ET =   993900673.5322                UZF ET =           3.7805
        UZF RECHARGE =      175481.8973          UZF RECHARGE =       0.0000E+00

            IN - OUT =    60051847.2079              IN - OUT =           0.6270

          STORAGE:                                 STORAGE:
          --------                                 --------
      STORAGE CHANGE =    60051832.4967        STORAGE CHANGE =           0.6270

 PERCENT DISCREPANCY IS DIFFERENCE BETWEEN IN-OUT MINUS CHANGE IN STORAGE
 DIVIDED BY THE AVERAGE OF IN AND OUT TIMES 100

 PERCENT DISCREPANCY =           0.00     PERCENT DISCREPANCY =           0.00






1
  VOLUMETRIC BUDGET FOR AGRICULTURAL FIELDS AT  END OF TIME STEP   30, STRESS PERIOD  23
  ------------------------------------------------------------------------------

     CUMULATIVE VOLUMES      L**3       RATES FOR THIS TIME STEP      L**3/T
     ------------------                 ------------------------

           IN:                                      IN:
           ---                                      ---
               AG WELLS  =   419684928.0000                 AG WELLS  =           0.0000
      DIVERSION SEGMENTS =   379344352.0000        DIVERSION SEGMENTS =           0.0000
           GW IRRIGATION =           0.0000             GW IRRIGATION =           0.0000
           SW IRRIGATION =           0.0000             SW IRRIGATION =           0.0000
        SYSTEM LOSSES GW =           0.0000          SYSTEM LOSSES GW =           0.0000
        SYSTEM LOSSES SW =           0.0000          SYSTEM LOSSES SW =           0.0000

                TOTAL IN =   799029248.0000                  TOTAL IN =           0.0000

          OUT:                                     OUT:
          ----                                     ----
               AG WELLS  =           0.0000                 AG WELLS  =           0.0000
      DIVERSION SEGMENTS =           0.0000        DIVERSION SEGMENTS =           0.0000
           GW IRRIGATION =   419684928.0000             GW IRRIGATION =           0.0000
           SW IRRIGATION =   379352160.0000             SW IRRIGATION =           0.0000
        SYSTEM LOSSES GW =           0.0000          SYSTEM LOSSES GW =           0.0000
        SYSTEM LOSSES SW =           0.0000          SYSTEM LOSSES SW =           0.0000

               TOTAL OUT =   799037056.0000                 TOTAL OUT =           0.0000

                IN - OUT =       -7808.0000                  IN - OUT =           0.0000

     PERCENT DISCREPANCY =          -0.00         PERCENT DISCREPANCY =           0.00



1
  VOLUMETRIC BUDGET FOR ENTIRE MODEL AT END OF TIME STEP   30, STRESS PERIOD  23
  ------------------------------------------------------------------------------

     CUMULATIVE VOLUMES      L**3       RATES FOR THIS TIME STEP      L**3/T
     ------------------                 ------------------------

           IN:                                      IN:
           ---                                      ---
             STORAGE     =   567457408.0000               STORAGE     =           8.1515
       CONSTANT HEAD     =           0.0000         CONSTANT HEAD     =           0.0000
     HEAD DEP BOUNDS     =    16691204.0000       HEAD DEP BOUNDS     =           0.2883
      STREAM LEAKAGE     =   679022208.0000        STREAM LEAKAGE     =          11.3287
        UZF RECHARGE     =      175481.8594          UZF RECHARGE     =           0.0000
               GW ET     =           0.0000                 GW ET     =           0.0000
     SURFACE LEAKAGE     =           0.0000       SURFACE LEAKAGE     =           0.0000
           AG WELLS      =           0.0000             AG WELLS      =           0.0000

                TOTAL IN =  1263346304.0000                  TOTAL IN =          19.7685

          OUT:                                     OUT:
          ----                                     ----
             STORAGE     =   231729152.0000               STORAGE     =           9.4366
       CONSTANT HEAD     =           0.0000         CONSTANT HEAD     =           0.0000
     HEAD DEP BOUNDS     =    16683764.0000       HEAD DEP BOUNDS     =           0.2871
      STREAM LEAKAGE     =   595209472.0000        STREAM LEAKAGE     =          10.0449
        UZF RECHARGE     =           0.0000          UZF RECHARGE     =           0.0000
               GW ET     =           0.0000                 GW ET     =           0.0000
     SURFACE LEAKAGE     =           0.0000       SURFACE LEAKAGE     =           0.0000
           AG WELLS      =   419684928.0000             AG WELLS      =           0.0000

               TOTAL OUT =  1263307264.0000                 TOTAL OUT =          19.7685

                IN - OUT =       39040.0000                  IN - OUT =       7.6294E-06

     PERCENT DISCREPANCY =           0.00         PERCENT DISCREPANCY =           0.00






         TIME SUMMARY AT END OF TIME STEP   30 IN STRESS PERIOD   23
                    SECONDS     MINUTES      HOURS       DAYS        YEARS
                    -----------------------------------------------------------
   TIME STEP LENGTH  87667.      1461.1      24.352      1.0147     2.77799E-03
 STRESS PERIOD TIME 2.63000E+06  43833.      730.56      30.440     8.33397E-02
         TOTAL TIME 5.79467E+07 9.65778E+05  16096.      670.68      1.8362    
1
1
                            STRESS PERIOD NO.   24, LENGTH =   2630000.    
                            -----------------------------------------------

                              NUMBER OF TIME STEPS =    30

                               MULTIPLIER FOR DELT =     1.000

                            INITIAL TIME STEP SIZE =   87666.66    

 REUSING NON-PARAMETER GHB CELLS FROM LAST STRESS PERIOD

      2 GHB CELLS

 REUSING STREAM SEGMENT DATA FROM LAST STRESS PERIOD



            AREAL INFILTRATION RATE
 READING ON UNIT   19 WITH FORMAT: (10F4.0)            

            1           2           3           4           5           6           7           8           9          10
 ........................................................................................................................
   1   1.2000E-09   0.000       0.000       0.000       0.000       0.000       0.000       0.000       0.000       0.000    
   2   2.1000E-09  2.0000E-09  8.0000E-10  8.5000E-09   0.000       0.000       0.000       0.000       0.000       0.000    
   3   5.0000E-10  1.1000E-09  8.8000E-09  5.5000E-09   0.000       0.000       0.000       0.000       0.000       0.000    
   4   8.5000E-09  1.1000E-09  1.1000E-09  1.1000E-09  2.0000E-09   0.000       0.000       0.000       0.000       0.000    
   5   8.5000E-09  1.1000E-09  1.1000E-09  1.1000E-09  1.1000E-09   0.000       0.000       0.000       0.000       0.000    
   6   8.5000E-09  5.2000E-09  2.1000E-09  1.1000E-09  1.5000E-09   0.000       0.000       0.000       0.000       0.000    
   7   8.5000E-09  5.2000E-09  2.1000E-09  1.2000E-09  2.0000E-09   0.000       0.000       0.000       0.000       0.000    
   8   5.0000E-10  5.2000E-09  2.1000E-09  1.2000E-09  5.0000E-09   0.000       0.000       0.000       0.000       0.000    
   9   5.0000E-10  5.2000E-09  2.1000E-09  1.2000E-09  5.0000E-09   0.000       0.000       0.000       0.000       0.000    
  10   5.0000E-10  5.2000E-09  2.1000E-09  1.2000E-09  5.8000E-09   0.000       0.000       0.000       0.000       0.000    
  11   1.0000E-10  1.1000E-09  1.1000E-09  1.2000E-09  5.0000E-09   0.000       0.000       0.000       0.000       0.000    
  12   1.1000E-09  1.1000E-09  1.1000E-09  1.1000E-09  2.0000E-09   0.000       0.000       0.000       0.000       0.000    
  13   1.1000E-09  2.2000E-09  2.2000E-09  2.1000E-09  1.0000E-09   0.000       0.000       0.000       0.000       0.000    
  14   2.0000E-10  5.5000E-09  5.5000E-09  5.2000E-09  1.0000E-09   0.000       0.000       0.000       0.000       0.000    
  15    0.000      8.8000E-09  8.8000E-09   0.000       0.000       0.000       0.000       0.000       0.000       0.000    

                  ET RATE =  5.000000E-10

 USING ET EXTINCTION DEPTH FROM PREVIOUS STRESS PERIOD. CURRENT PERIOD IS:      24

 USING EXTINCTION WATER CONTENT FROM PREVIOUS STRESS PERIOD. CURRENT PERIOD IS:      24

 USING AIR ENTRY PRESSURE FROM PREVIOUS STRESS PERIOD. CURRENT PERIOD IS:      24

 USING ROOT PRESSURE HEAD FROM PREVIOUS STRESS PERIOD. CURRENT PERIOD IS:      24

 USING ROOT ACTIVITY FROM PREVIOUS STRESS PERIOD. CURRENT PERIOD IS:      24

 PROCESSING AG STRESS PERIOD DATA

 READING AG STRESS PERIOD DATA

 READING IRRIGATION SEGMENT

 READING IRRIGATION WELL

 READING SUPPLEMENTAL WELL

 END PROCESSING AG STRESS PERIOD DATA OPTIONS
 
 SOLVING FOR HEAD 
                                                   Max.-Head-Change                         Max.-Flux-Residual
  Residual-Control   Outer-Iter.   Inner-Iter.     Column Row Layer    Maximum-Head-Change  Column Row Layer    Maximum-Flux-Residual          L2-NORM 
          0                 1           2             4    7     1       0.3340439243E-01       4    7    1         0.1760676300E+01      0.3575694041E+01
          0                 2           2             4    7     1      -0.3249359164E-02       4    7    1        -0.1760691723E+00      0.3575702592E+00
          0                 3           2             4    7     1       0.2212690911E-03       4    7    1         0.1232483278E-01      0.2502992020E-01
          0                 4           1             4    7     1      -0.8804505273E-05       4    7    1        -0.5040864312E-03      0.1023722864E-02

    ------------------------------------------------
       NWT REQUIRED            4 OUTER ITERATIONS 
       AND A TOTAL OF          7 INNER ITERATIONS.
    ------------------------------------------------

 NO OUTPUT CONTROL FOR STRESS PERIOD   24   TIME STEP    1
 
 SOLVING FOR HEAD 
                                                   Max.-Head-Change                         Max.-Flux-Residual
  Residual-Control   Outer-Iter.   Inner-Iter.     Column Row Layer    Maximum-Head-Change  Column Row Layer    Maximum-Flux-Residual          L2-NORM 
          0                 1           2             4    7     1       0.3292934303E-01       4    7    1         0.1735625284E+01      0.3526742941E+01
          0                 2           2             4    7     1      -0.3203149289E-02       4    7    1        -0.1735640350E+00      0.3526750501E+00
          0                 3           2             4    7     1       0.2181223752E-03       4    7    1         0.1214947344E-01      0.2468724923E-01
          0                 4           1             4    7     1      -0.8679294337E-05       4    7    1        -0.4969142192E-03      0.1009710057E-02

    ------------------------------------------------
       NWT REQUIRED            4 OUTER ITERATIONS 
       AND A TOTAL OF          7 INNER ITERATIONS.
    ------------------------------------------------

 NO OUTPUT CONTROL FOR STRESS PERIOD   24   TIME STEP    2
 
 SOLVING FOR HEAD 
                                                   Max.-Head-Change                         Max.-Flux-Residual
  Residual-Control   Outer-Iter.   Inner-Iter.     Column Row Layer    Maximum-Head-Change  Column Row Layer    Maximum-Flux-Residual          L2-NORM 
          0                 1           2             4    7     1       0.3246153988E-01       4    7    1         0.1710950740E+01      0.3478430802E+01
          0                 2           2             4    7     1      -0.3157644283E-02       4    7    1        -0.1710965454E+00      0.3478438219E+00
          0                 3           2             4    7     1       0.2150236583E-03       4    7    1         0.1197674944E-01      0.2434906035E-01
          0                 4           1             4    7     1      -0.8555993483E-05       4    7    1        -0.4898498019E-03      0.9958754202E-03

    ------------------------------------------------
       NWT REQUIRED            4 OUTER ITERATIONS 
       AND A TOTAL OF          7 INNER ITERATIONS.
    ------------------------------------------------

 NO OUTPUT CONTROL FOR STRESS PERIOD   24   TIME STEP    3
 
 SOLVING FOR HEAD 
                                                   Max.-Head-Change                         Max.-Flux-Residual
  Residual-Control   Outer-Iter.   Inner-Iter.     Column Row Layer    Maximum-Head-Change  Column Row Layer    Maximum-Flux-Residual          L2-NORM 
          0                 1           2             4    7     1       0.3200069083E-01       4    7    1         0.1686637281E+01      0.3431188341E+01
          0                 2           2             4    7     1      -0.3112815726E-02       4    7    1        -0.1686651646E+00      0.3431195547E+00
          0                 3           2             4    7     1       0.2119710044E-03       4    7    1         0.1180655304E-01      0.2401836600E-01
          0                 4           1             4    7     1      -0.8434525230E-05       4    7    1        -0.4828887400E-03      0.9823522853E-03

    ------------------------------------------------
       NWT REQUIRED            4 OUTER ITERATIONS 
       AND A TOTAL OF          7 INNER ITERATIONS.
    ------------------------------------------------

 NO OUTPUT CONTROL FOR STRESS PERIOD   24   TIME STEP    4
 
 SOLVING FOR HEAD 
                                                   Max.-Head-Change                         Max.-Flux-Residual
  Residual-Control   Outer-Iter.   Inner-Iter.     Column Row Layer    Maximum-Head-Change  Column Row Layer    Maximum-Flux-Residual          L2-NORM 
          0                 1           2             4    7     1       0.3154704296E-01       4    7    1         0.1662698994E+01      0.3384999390E+01
          0                 2           2             4    7     1      -0.3068687656E-02       4    7    1        -0.1662713016E+00      0.3385006375E+00
          0                 3           2             4    7     1       0.2089660516E-03       4    7    1         0.1163898288E-01      0.2369504277E-01
          0                 4           1             4    7     1      -0.8314955546E-05       4    7    1        -0.4760351189E-03      0.9691285879E-03

    ------------------------------------------------
       NWT REQUIRED            4 OUTER ITERATIONS 
       AND A TOTAL OF          7 INNER ITERATIONS.
    ------------------------------------------------

 NO OUTPUT CONTROL FOR STRESS PERIOD   24   TIME STEP    5
 
 SOLVING FOR HEAD 
                                                   Max.-Head-Change                         Max.-Flux-Residual
  Residual-Control   Outer-Iter.   Inner-Iter.     Column Row Layer    Maximum-Head-Change  Column Row Layer    Maximum-Flux-Residual          L2-NORM 
          0                 1           2             4    7     1       0.3110042137E-01       4    7    1         0.1639126763E+01      0.3339818323E+01
          0                 2           2             4    7     1      -0.3025243058E-02       4    7    1        -0.1639140447E+00      0.3339825045E+00
          0                 3           2             4    7     1       0.2060076402E-03       4    7    1         0.1147397513E-01      0.2337876818E-01
          0                 4           1             4    7     1      -0.8197237690E-05       4    7    1        -0.4692862958E-03      0.9561937978E-03

    ------------------------------------------------
       NWT REQUIRED            4 OUTER ITERATIONS 
       AND A TOTAL OF          7 INNER ITERATIONS.
    ------------------------------------------------

 NO OUTPUT CONTROL FOR STRESS PERIOD   24   TIME STEP    6
 
 SOLVING FOR HEAD 
                                                   Max.-Head-Change                         Max.-Flux-Residual
  Residual-Control   Outer-Iter.   Inner-Iter.     Column Row Layer    Maximum-Head-Change  Column Row Layer    Maximum-Flux-Residual          L2-NORM 
          0                 1           2             4    7     1       0.3066078501E-01       4    7    1         0.1615918830E+01      0.3295621322E+01
          0                 2           2             4    7     1      -0.2982477940E-02       4    7    1        -0.1615932180E+00      0.3295627843E+00
          0                 3           2             4    7     1       0.2030954990E-03       4    7    1         0.1131151752E-01      0.2306938698E-01
          0                 4           1             4    7     1      -0.8081360839E-05       4    7    1        -0.4626417572E-03      0.9435385874E-03

    ------------------------------------------------
       NWT REQUIRED            4 OUTER ITERATIONS 
       AND A TOTAL OF          7 INNER ITERATIONS.
    ------------------------------------------------

 NO OUTPUT CONTROL FOR STRESS PERIOD   24   TIME STEP    7
 
 SOLVING FOR HEAD 
                                                   Max.-Head-Change                         Max.-Flux-Residual
  Residual-Control   Outer-Iter.   Inner-Iter.     Column Row Layer    Maximum-Head-Change  Column Row Layer    Maximum-Flux-Residual          L2-NORM 
          0                 1           2             4    7     1       0.3022821490E-01       4    7    1         0.1593080376E+01      0.3252375157E+01
          0                 2           2             4    7     1      -0.2940400184E-02       4    7    1        -0.1593093399E+00      0.3252381440E+00
          0                 3           2             4    7     1       0.2002301646E-03       4    7    1         0.1115164630E-01      0.2276666439E-01
          0                 4           1             4    7     1      -0.7967346408E-05       4    7    1        -0.4561030200E-03      0.9311596264E-03

    ------------------------------------------------
       NWT REQUIRED            4 OUTER ITERATIONS 
       AND A TOTAL OF          7 INNER ITERATIONS.
    ------------------------------------------------

 NO OUTPUT CONTROL FOR STRESS PERIOD   24   TIME STEP    8
 
 SOLVING FOR HEAD 
                                                   Max.-Head-Change                         Max.-Flux-Residual
  Residual-Control   Outer-Iter.   Inner-Iter.     Column Row Layer    Maximum-Head-Change  Column Row Layer    Maximum-Flux-Residual          L2-NORM 
          0                 1           2             4    7     1       0.2980251567E-01       4    7    1         0.1570600982E+01      0.3210046159E+01
          0                 2           2             4    7     1      -0.2898990784E-02       4    7    1        -0.1570613682E+00      0.3210052278E+00
          0                 3           2             4    7     1       0.1974103424E-03       4    7    1         0.1099428851E-01      0.2247036286E-01
          0                 4           1             4    7     1      -0.7855143048E-05       4    7    1        -0.4496670740E-03      0.9190398377E-03

    ------------------------------------------------
       NWT REQUIRED            4 OUTER ITERATIONS 
       AND A TOTAL OF          7 INNER ITERATIONS.
    ------------------------------------------------

 NO OUTPUT CONTROL FOR STRESS PERIOD   24   TIME STEP    9
 
 SOLVING FOR HEAD 
                                                   Max.-Head-Change                         Max.-Flux-Residual
  Residual-Control   Outer-Iter.   Inner-Iter.     Column Row Layer    Maximum-Head-Change  Column Row Layer    Maximum-Flux-Residual          L2-NORM 
          0                 1           2             4    7     1       0.2938376149E-01       4    7    1         0.1548485139E+01      0.3168617242E+01
          0                 2           2             4    7     1      -0.2858256959E-02       4    7    1        -0.1548497524E+00      0.3168623058E+00
          0                 3           2             4    7     1       0.1946365245E-03       4    7    1         0.1083947564E-01      0.2218034435E-01
          0                 4           1             4    7     1      -0.7744770103E-05       4    7    1        -0.4433352183E-03      0.9071763146E-03

    ------------------------------------------------
       NWT REQUIRED            4 OUTER ITERATIONS 
       AND A TOTAL OF          7 INNER ITERATIONS.
    ------------------------------------------------

 NO OUTPUT CONTROL FOR STRESS PERIOD   24   TIME STEP   10
 
 SOLVING FOR HEAD 
                                                   Max.-Head-Change                         Max.-Flux-Residual
  Residual-Control   Outer-Iter.   Inner-Iter.     Column Row Layer    Maximum-Head-Change  Column Row Layer    Maximum-Flux-Residual          L2-NORM 
          0                 1           2             4    7     1       0.2897174806E-01       4    7    1         0.1526722072E+01      0.3128051513E+01
          0                 2           2             4    7     1      -0.2818176470E-02       4    7    1        -0.1526734146E+00      0.3127225328E+00
          0                 3           2             4    7     1       0.1919071963E-03       4    7    1         0.1068713222E-01      0.2189056214E-01
          0                 4           1             4    7     1      -0.7636167590E-05       4    7    1        -0.4371043697E-03      0.8953369091E-03

    ------------------------------------------------
       NWT REQUIRED            4 OUTER ITERATIONS 
       AND A TOTAL OF          7 INNER ITERATIONS.
    ------------------------------------------------

 NO OUTPUT CONTROL FOR STRESS PERIOD   24   TIME STEP   11
 
 SOLVING FOR HEAD 
                                                   Max.-Head-Change                         Max.-Flux-Residual
  Residual-Control   Outer-Iter.   Inner-Iter.     Column Row Layer    Maximum-Head-Change  Column Row Layer    Maximum-Flux-Residual          L2-NORM 
          0                 1           2             4    7     1       0.2856668189E-01       4    7    1         0.1505323249E+01      0.3088389552E+01
          0                 2           2             4    7     1      -0.2778776496E-02       4    7    1        -0.1505335020E+00      0.3088395666E+00
          0                 3           2             4    7     1       0.1892242083E-03       4    7    1         0.1053733856E-01      0.2161875461E-01
          0                 4           1             4    7     1      -0.7529408960E-05       4    7    1        -0.4309777974E-03      0.8842085825E-03

    ------------------------------------------------
       NWT REQUIRED            4 OUTER ITERATIONS 
       AND A TOTAL OF          7 INNER ITERATIONS.
    ------------------------------------------------

 NO OUTPUT CONTROL FOR STRESS PERIOD   24   TIME STEP   12
 
 SOLVING FOR HEAD 
                                                   Max.-Head-Change                         Max.-Flux-Residual
  Residual-Control   Outer-Iter.   Inner-Iter.     Column Row Layer    Maximum-Head-Change  Column Row Layer    Maximum-Flux-Residual          L2-NORM 
          0                 1           2             4    7     1       0.2816820615E-01       4    7    1         0.1484269750E+01      0.3049633322E+01
          0                 2           2             4    7     1      -0.2740015236E-02       4    7    1        -0.1484281224E+00      0.3049639197E+00
          0                 3           2             4    7     1       0.1865847145E-03       4    7    1         0.1038996220E-01      0.2134746647E-01
          0                 4           1             4    7     1      -0.7424381043E-05       4    7    1        -0.4249500917E-03      0.8731142109E-03

    ------------------------------------------------
       NWT REQUIRED            4 OUTER ITERATIONS 
       AND A TOTAL OF          7 INNER ITERATIONS.
    ------------------------------------------------

 NO OUTPUT CONTROL FOR STRESS PERIOD   24   TIME STEP   13
 
 SOLVING FOR HEAD 
                                                   Max.-Head-Change                         Max.-Flux-Residual
  Residual-Control   Outer-Iter.   Inner-Iter.     Column Row Layer    Maximum-Head-Change  Column Row Layer    Maximum-Flux-Residual          L2-NORM 
          0                 1           2             4    7     1       0.2777651842E-01       4    7    1         0.1463572706E+01      0.3011660977E+01
          0                 2           2             4    7     1      -0.2701914273E-02       4    7    1        -0.1463583888E+00      0.3011666586E+00
          0                 3           2             4    7     1       0.1839901843E-03       4    7    1         0.1024508106E-01      0.2108165095E-01
          0                 4           1             4    7     1      -0.7321142095E-05       4    7    1        -0.4190244426E-03      0.8622379397E-03

    ------------------------------------------------
       NWT REQUIRED            4 OUTER ITERATIONS 
       AND A TOTAL OF          7 INNER ITERATIONS.
    ------------------------------------------------

 NO OUTPUT CONTROL FOR STRESS PERIOD   24   TIME STEP   14
 
 SOLVING FOR HEAD 
                                                   Max.-Head-Change                         Max.-Flux-Residual
  Residual-Control   Outer-Iter.   Inner-Iter.     Column Row Layer    Maximum-Head-Change  Column Row Layer    Maximum-Flux-Residual          L2-NORM 
          0                 1           2             4    7     1       0.2739139371E-01       4    7    1         0.1443220292E+01      0.2974451641E+01
          0                 2           2             4    7     1      -0.2664451722E-02       4    7    1        -0.1443231189E+00      0.2974456969E+00
          0                 3           2             4    7     1       0.1814391280E-03       4    7    1         0.1010261239E-01      0.2082118506E-01
          0                 4           1             4    7     1      -0.7219633514E-05       4    7    1        -0.4131974792E-03      0.8515861618E-03

    ------------------------------------------------
       NWT REQUIRED            4 OUTER ITERATIONS 
       AND A TOTAL OF          7 INNER ITERATIONS.
    ------------------------------------------------

 NO OUTPUT CONTROL FOR STRESS PERIOD   24   TIME STEP   15
 
 SOLVING FOR HEAD 
                                                   Max.-Head-Change                         Max.-Flux-Residual
  Residual-Control   Outer-Iter.   Inner-Iter.     Column Row Layer    Maximum-Head-Change  Column Row Layer    Maximum-Flux-Residual          L2-NORM 
          0                 1           2             4    7     1       0.2701274332E-01       4    7    1         0.1423208159E+01      0.2937981913E+01
          0                 2           2             4    7     1      -0.2627618960E-02       4    7    1        -0.1423218777E+00      0.2937987160E+00
          0                 3           2             4    7     1       0.1789309562E-03       4    7    1         0.9962525696E-02      0.2056588126E-01
          0                 4           1             4    7     1      -0.7119831009E-05       4    7    1        -0.4074679127E-03      0.8411796208E-03

    ------------------------------------------------
       NWT REQUIRED            4 OUTER ITERATIONS 
       AND A TOTAL OF          7 INNER ITERATIONS.
    ------------------------------------------------

 NO OUTPUT CONTROL FOR STRESS PERIOD   24   TIME STEP   16
 
 SOLVING FOR HEAD 
                                                   Max.-Head-Change                         Max.-Flux-Residual
  Residual-Control   Outer-Iter.   Inner-Iter.     Column Row Layer    Maximum-Head-Change  Column Row Layer    Maximum-Flux-Residual          L2-NORM 
          0                 1           2             4    7     1       0.2664048169E-01       4    7    1         0.1403531705E+01      0.2902236847E+01
          0                 2           2             4    7     1      -0.2591407748E-02       4    7    1        -0.1403542051E+00      0.2902256254E+00
          0                 3           2             4    7     1       0.1764651108E-03       4    7    1         0.9824788815E-02      0.2031577802E-01
          0                 4           1             4    7     1      -0.7021712705E-05       4    7    1        -0.4018344657E-03      0.8309153839E-03

    ------------------------------------------------
       NWT REQUIRED            4 OUTER ITERATIONS 
       AND A TOTAL OF          7 INNER ITERATIONS.
    ------------------------------------------------

 NO OUTPUT CONTROL FOR STRESS PERIOD   24   TIME STEP   17
 
 SOLVING FOR HEAD 
                                                   Max.-Head-Change                         Max.-Flux-Residual
  Residual-Control   Outer-Iter.   Inner-Iter.     Column Row Layer    Maximum-Head-Change  Column Row Layer    Maximum-Flux-Residual          L2-NORM 
          0                 1           2             4    7     1       0.2627464843E-01       4    7    1         0.1384193808E+01      0.2867186043E+01
          0                 2           2             4    7     1      -0.2555821753E-02       4    7    1        -0.1384203888E+00      0.2867191987E+00
          0                 3           2             4    7     1       0.1740418401E-03       4    7    1         0.9689421862E-02      0.2007032638E-01
          0                 4           1             4    7     1      -0.6925287929E-05       4    7    1        -0.3962979331E-03      0.8208752572E-03

    ------------------------------------------------
       NWT REQUIRED            4 OUTER ITERATIONS 
       AND A TOTAL OF          7 INNER ITERATIONS.
    ------------------------------------------------

 NO OUTPUT CONTROL FOR STRESS PERIOD   24   TIME STEP   18
 
 SOLVING FOR HEAD 
                                                   Max.-Head-Change                         Max.-Flux-Residual
  Residual-Control   Outer-Iter.   Inner-Iter.     Column Row Layer    Maximum-Head-Change  Column Row Layer    Maximum-Flux-Residual          L2-NORM 
          0                 1           2             4    7     1       0.2591501165E-01       4    7    1         0.1365181899E+01      0.2832822027E+01
          0                 2           2             4    7     1      -0.2520838517E-02       4    7    1        -0.1365191719E+00      0.2832827625E+00
          0                 3           2             4    7     1       0.1716596156E-03       4    7    1         0.9556336881E-02      0.1982977340E-01
          0                 4           1             4    7     1      -0.6830497619E-05       4    7    1        -0.3908547710E-03      0.8110372986E-03

    ------------------------------------------------
       NWT REQUIRED            4 OUTER ITERATIONS 
       AND A TOTAL OF          7 INNER ITERATIONS.
    ------------------------------------------------

 NO OUTPUT CONTROL FOR STRESS PERIOD   24   TIME STEP   19
 
 SOLVING FOR HEAD 
                                                   Max.-Head-Change                         Max.-Flux-Residual
  Residual-Control   Outer-Iter.   Inner-Iter.     Column Row Layer    Maximum-Head-Change  Column Row Layer    Maximum-Flux-Residual          L2-NORM 
          0                 1           2             4    7     1       0.2556160458E-01       4    7    1         0.1346498583E+01      0.2799113249E+01
          0                 2           2             4    7     1      -0.2486461270E-02       4    7    1        -0.1346508149E+00      0.2799118516E+00
          0                 3           2             4    7     1       0.1693186562E-03       4    7    1         0.9425552068E-02      0.1959381365E-01
          0                 4           1             4    7     1      -0.6737348454E-05       4    7    1        -0.3855056657E-03      0.8013876701E-03

    ------------------------------------------------
       NWT REQUIRED            4 OUTER ITERATIONS 
       AND A TOTAL OF          7 INNER ITERATIONS.
    ------------------------------------------------

 NO OUTPUT CONTROL FOR STRESS PERIOD   24   TIME STEP   20
 
 SOLVING FOR HEAD 
                                                   Max.-Head-Change                         Max.-Flux-Residual
  Residual-Control   Outer-Iter.   Inner-Iter.     Column Row Layer    Maximum-Head-Change  Column Row Layer    Maximum-Flux-Residual          L2-NORM 
          0                 1           2             4    7     1       0.2521433159E-01       4    7    1         0.1328138265E+01      0.2766058709E+01
          0                 2           2             4    7     1      -0.2452680711E-02       4    7    1        -0.1328147585E+00      0.2766063658E+00
          0                 3           2             4    7     1       0.1670183287E-03       4    7    1         0.9297028296E-02      0.1936241865E-01
          0                 4           1             4    7     1      -0.6645816025E-05       4    7    1        -0.3802490169E-03      0.7919258285E-03

    ------------------------------------------------
       NWT REQUIRED            4 OUTER ITERATIONS 
       AND A TOTAL OF          7 INNER ITERATIONS.
    ------------------------------------------------

 NO OUTPUT CONTROL FOR STRESS PERIOD   24   TIME STEP   21
 
 SOLVING FOR HEAD 
                                                   Max.-Head-Change                         Max.-Flux-Residual
  Residual-Control   Outer-Iter.   Inner-Iter.     Column Row Layer    Maximum-Head-Change  Column Row Layer    Maximum-Flux-Residual          L2-NORM 
          0                 1           2             4    7     1       0.2487295209E-01       4    7    1         0.1310088672E+01      0.2733630372E+01
          0                 2           2             4    7     1      -0.2419473437E-02       4    7    1        -0.1310097750E+00      0.2733636987E+00
          0                 3           2             4    7     1       0.1647570399E-03       4    7    1         0.9170679616E-02      0.1913543623E-01
          0                 4           1             4    7     1      -0.6555837358E-05       4    7    1        -0.3750813580E-03      0.7826395194E-03

    ------------------------------------------------
       NWT REQUIRED            4 OUTER ITERATIONS 
       AND A TOTAL OF          7 INNER ITERATIONS.
    ------------------------------------------------

 NO OUTPUT CONTROL FOR STRESS PERIOD   24   TIME STEP   22
 
 SOLVING FOR HEAD 
                                                   Max.-Head-Change                         Max.-Flux-Residual
  Residual-Control   Outer-Iter.   Inner-Iter.     Column Row Layer    Maximum-Head-Change  Column Row Layer    Maximum-Flux-Residual          L2-NORM 
          0                 1           2             4    7     1       0.2453763787E-01       4    7    1         0.1292359280E+01      0.2701815645E+01
          0                 2           2             4    7     1      -0.2386856159E-02       4    7    1        -0.1292368123E+00      0.2701820021E+00
          0                 3           2             4    7     1       0.1625359276E-03       4    7    1         0.9046572400E-02      0.1891271572E-01
          0                 4           1             4    7     1      -0.6467457007E-05       4    7    1        -0.3700053517E-03      0.7735327390E-03

    ------------------------------------------------
       NWT REQUIRED            4 OUTER ITERATIONS 
       AND A TOTAL OF          7 INNER ITERATIONS.
    ------------------------------------------------

 NO OUTPUT CONTROL FOR STRESS PERIOD   24   TIME STEP   23
 
 SOLVING FOR HEAD 
                                                   Max.-Head-Change                         Max.-Flux-Residual
  Residual-Control   Outer-Iter.   Inner-Iter.     Column Row Layer    Maximum-Head-Change  Column Row Layer    Maximum-Flux-Residual          L2-NORM 
          0                 1           2             4    7     1       0.2420801327E-01       4    7    1         0.1274929726E+01      0.2670594510E+01
          0                 2           2             4    7     1      -0.2354792335E-02       4    7    1        -0.1274938340E+00      0.2670598608E+00
          0                 3           2             4    7     1       0.1603525037E-03       4    7    1         0.8924564090E-02      0.1869417140E-01
          0                 4           1             4    7     1      -0.6380577000E-05       4    7    1        -0.3650152325E-03      0.7645928252E-03

    ------------------------------------------------
       NWT REQUIRED            4 OUTER ITERATIONS 
       AND A TOTAL OF          7 INNER ITERATIONS.
    ------------------------------------------------

 NO OUTPUT CONTROL FOR STRESS PERIOD   24   TIME STEP   24
 
 SOLVING FOR HEAD 
                                                   Max.-Head-Change                         Max.-Flux-Residual
  Residual-Control   Outer-Iter.   Inner-Iter.     Column Row Layer    Maximum-Head-Change  Column Row Layer    Maximum-Flux-Residual          L2-NORM 
          0                 1           2             4    7     1       0.2388424613E-01       4    7    1         0.1257809806E+01      0.2639954245E+01
          0                 2           2             4    7     1      -0.2323298290E-02       4    7    1        -0.1257818197E+00      0.2639958033E+00
          0                 3           2             4    7     1       0.1582078791E-03       4    7    1         0.8804723251E-02      0.1847968235E-01
          0                 4           1             4    7     1      -0.6295240163E-05       4    7    1        -0.3601137132E-03      0.7558194450E-03

    ------------------------------------------------
       NWT REQUIRED            4 OUTER ITERATIONS 
       AND A TOTAL OF          7 INNER ITERATIONS.
    ------------------------------------------------

 NO OUTPUT CONTROL FOR STRESS PERIOD   24   TIME STEP   25
 
 SOLVING FOR HEAD 
                                                   Max.-Head-Change                         Max.-Flux-Residual
  Residual-Control   Outer-Iter.   Inner-Iter.     Column Row Layer    Maximum-Head-Change  Column Row Layer    Maximum-Flux-Residual          L2-NORM 
          0                 1           2             4    7     1       0.2356609455E-01       4    7    1         0.1240986266E+01      0.2609884823E+01
          0                 2           2             4    7     1      -0.2292350495E-02       4    7    1        -0.1240994440E+00      0.2609888406E+00
          0                 3           2             4    7     1       0.1561004518E-03       4    7    1         0.8686957094E-02      0.1826919612E-01
          0                 4           1             4    7     1      -0.6211383291E-05       4    7    1        -0.3552970647E-03      0.7472088455E-03

    ------------------------------------------------
       NWT REQUIRED            4 OUTER ITERATIONS 
       AND A TOTAL OF          7 INNER ITERATIONS.
    ------------------------------------------------

 NO OUTPUT CONTROL FOR STRESS PERIOD   24   TIME STEP   26
 
 SOLVING FOR HEAD 
                                                   Max.-Head-Change                         Max.-Flux-Residual
  Residual-Control   Outer-Iter.   Inner-Iter.     Column Row Layer    Maximum-Head-Change  Column Row Layer    Maximum-Flux-Residual          L2-NORM 
          0                 1           2             4    7     1       0.2325345506E-01       4    7    1         0.1224453884E+01      0.2580363513E+01
          0                 2           2             4    7     1      -0.2261938885E-02       4    7    1        -0.1224461845E+00      0.2580366884E+00
          0                 3           2             4    7     1       0.1540295372E-03       4    7    1         0.8571229087E-02      0.1806254529E-01
          0                 4           1             4    7     1      -0.6128980020E-05       4    7    1        -0.3505637942E-03      0.7387532382E-03

    ------------------------------------------------
       NWT REQUIRED            4 OUTER ITERATIONS 
       AND A TOTAL OF          7 INNER ITERATIONS.
    ------------------------------------------------

 NO OUTPUT CONTROL FOR STRESS PERIOD   24   TIME STEP   27
 
 SOLVING FOR HEAD 
                                                   Max.-Head-Change                         Max.-Flux-Residual
  Residual-Control   Outer-Iter.   Inner-Iter.     Column Row Layer    Maximum-Head-Change  Column Row Layer    Maximum-Flux-Residual          L2-NORM 
          0                 1           2             4    7     1       0.2294622542E-01       4    7    1         0.1208207293E+01      0.2551377151E+01
          0                 2           2             4    7     1      -0.2232053513E-02       4    7    1        -0.1208215049E+00      0.2551380182E+00
          0                 3           2             4    7     1       0.1519944574E-03       4    7    1         0.8457501663E-02      0.1785964775E-01
          0                 4           1             4    7     1      -0.6048002605E-05       4    7    1        -0.3459123400E-03      0.7304623873E-03

    ------------------------------------------------
       NWT REQUIRED            4 OUTER ITERATIONS 
       AND A TOTAL OF          7 INNER ITERATIONS.
    ------------------------------------------------

 NO OUTPUT CONTROL FOR STRESS PERIOD   24   TIME STEP   28
 
 SOLVING FOR HEAD 
                                                   Max.-Head-Change                         Max.-Flux-Residual
  Residual-Control   Outer-Iter.   Inner-Iter.     Column Row Layer    Maximum-Head-Change  Column Row Layer    Maximum-Flux-Residual          L2-NORM 
          0                 1           2             4    7     1       0.2264443910E-01       4    7    1         0.1192248513E+01      0.2522923638E+01
          0                 2           2             4    7     1      -0.2202697637E-02       4    7    1        -0.1192256068E+00      0.2522926442E+00
          0                 3           2             4    7     1       0.1499954336E-03       4    7    1         0.8345788933E-02      0.1766045665E-01
          0                 4           1             4    7     1      -0.5968459104E-05       4    7    1        -0.3413432737E-03      0.7223131508E-03

    ------------------------------------------------
       NWT REQUIRED            4 OUTER ITERATIONS 
       AND A TOTAL OF          7 INNER ITERATIONS.
    ------------------------------------------------

 NO OUTPUT CONTROL FOR STRESS PERIOD   24   TIME STEP   29
 
 SOLVING FOR HEAD 
                                                   Max.-Head-Change                         Max.-Flux-Residual
  Residual-Control   Outer-Iter.   Inner-Iter.     Column Row Layer    Maximum-Head-Change  Column Row Layer    Maximum-Flux-Residual          L2-NORM 
          0                 1           2             4    7     1       0.2234785472E-01       4    7    1         0.1176564641E+01      0.2494977320E+01
          0                 2           2             4    7     1      -0.2173847774E-02       4    7    1        -0.1176572001E+00      0.2494979855E+00
          0                 3           2             4    7     1       0.1480308681E-03       4    7    1         0.8236000609E-02      0.1746482278E-01
          0                 4           1             4    7     1      -0.5890287233E-05       4    7    1        -0.3368529274E-03      0.7143117036E-03

    ------------------------------------------------
       NWT REQUIRED            4 OUTER ITERATIONS 
       AND A TOTAL OF          7 INNER ITERATIONS.
    ------------------------------------------------

 NO OUTPUT CONTROL FOR STRESS PERIOD   24   TIME STEP   30



 STREAM LISTING     PERIOD     24   STEP       30

 LAYER ROW COL. STREAM  RCH.  FLOW INTO     FLOW TO   FLOW OUT OF   OVRLND.     DIRECT     STREAM       STREAM     STREAM     STREAM   STREAMBED  STREAMBED
                SEG.NO.  NO.  STRM. RCH.    AQUIFER    STRM. RCH.    RUNOFF     PRECIP       ET          HEAD       DEPTH      WIDTH   CONDCTNC.   GRADIENT

   1    1    1     1     1    7.8751E+00  1.2805E-01   7.7471E+00  0.000E+00  0.000E+00  0.000E+00  1.09388E+03  8.295E-01  7.430E+00  3.344E-02  1.276E+00
   1    2    2     1     2    7.7471E+00  1.9663E-01   7.5504E+00  0.000E+00  0.000E+00  0.000E+00  1.08888E+03  8.238E-01  7.346E+00  5.142E-02  1.275E+00
   1    3    3     1     3    7.5504E+00  1.6607E-01   7.3844E+00  0.000E+00  0.000E+00  0.000E+00  1.08324E+03  8.173E-01  7.251E+00  4.350E-02  1.272E+00
   1    3    4     1     4    7.3844E+00  1.5159E-01   7.2328E+00  0.000E+00  0.000E+00  0.000E+00  1.07822E+03  8.115E-01  7.166E+00  3.977E-02  1.270E+00
   1    4    5     2     1    5.2328E+00  2.7028E-01   4.9625E+00  0.000E+00  0.000E+00  0.000E+00  1.07240E+03  4.651E-01  1.200E+01  7.800E-02  1.155E+00
   1    5    6     2     2    4.9625E+00  2.0712E-01   4.7554E+00  0.000E+00  0.000E+00  0.000E+00  1.06696E+03  4.519E-01  1.200E+01  6.000E-02  1.151E+00
   1    6    6     2     3    4.7554E+00  2.0642E-01   4.5490E+00  0.000E+00  0.000E+00  0.000E+00  1.06223E+03  4.403E-01  1.200E+01  6.000E-02  1.147E+00
   1    7    6     2     4    4.5490E+00  2.0571E-01   4.3433E+00  0.000E+00  0.000E+00  0.000E+00  1.05750E+03  4.285E-01  1.200E+01  6.000E-02  1.143E+00
   1    8    6     2     5    4.3433E+00  2.0499E-01   4.1383E+00  0.000E+00  0.000E+00  0.000E+00  1.05278E+03  4.165E-01  1.200E+01  6.000E-02  1.139E+00
   1    3    5     3     1    2.0000E+00  2.8252E-01   1.7175E+00  0.000E+00  0.000E+00  0.000E+00  1.07555E+03  1.909E+00  9.636E+00  7.227E-02  1.955E+00
   1    3    6     3     2    1.7175E+00  2.4905E-01   1.4684E+00  0.000E+00  0.000E+00  0.000E+00  1.07264E+03  1.727E+00  8.909E+00  6.682E-02  1.864E+00
   1    3    7     3     3    1.4684E+00  1.9718E-01   1.2712E+00  0.000E+00  0.000E+00  0.000E+00  1.06987E+03  1.555E+00  8.218E+00  5.547E-02  1.777E+00
   1    4    8     3     4    1.2712E+00  2.2567E-01   1.0456E+00  0.000E+00  0.000E+00  0.000E+00  1.06682E+03  1.364E+00  7.455E+00  6.709E-02  1.682E+00
   1    5    8     3     5    1.0456E+00  1.5790E-01   8.8768E-01  0.000E+00  0.000E+00  0.000E+00  1.06362E+03  1.164E+00  6.655E+00  4.991E-02  1.582E+00
   1    6    8     3     6    8.8768E-01  5.5980E-02   8.3170E-01  0.000E+00  0.000E+00  0.000E+00  1.06158E+03  1.036E+00  6.145E+00  1.844E-02  1.518E+00
   1    5   10     4     1    1.0000E+01  9.0919E-02   9.9091E+00  0.000E+00  0.000E+00  0.000E+00  1.07836E+03  6.368E-01  1.000E+01  2.500E-02  1.212E+00
   1    5    9     4     2    9.9091E+00  1.8158E-01   9.7275E+00  0.000E+00  0.000E+00  0.000E+00  1.07154E+03  6.315E-01  1.000E+01  5.000E-02  1.211E+00
   1    6    8     4     3    9.7275E+00  1.2689E-01   9.6006E+00  0.000E+00  0.000E+00  0.000E+00  1.06381E+03  6.256E-01  1.000E+01  3.500E-02  1.209E+00
   1    6    8     5     1    1.0432E+01  2.2686E-01   1.0205E+01  0.000E+00  0.000E+00  0.000E+00  1.05868E+03  6.790E-01  1.542E+01  6.166E-02  1.226E+00
   1    7    7     5     2    1.0205E+01  2.7894E-01   9.9265E+00  0.000E+00  0.000E+00  0.000E+00  1.05417E+03  6.732E-01  1.519E+01  7.594E-02  1.224E+00
   1    8    7     5     3    9.9265E+00  1.9221E-01   9.7343E+00  0.000E+00  0.000E+00  0.000E+00  1.04992E+03  6.676E-01  1.497E+01  5.241E-02  1.223E+00
   1    8    6     5     4    9.7343E+00  1.3577E-01   9.5985E+00  0.000E+00  0.000E+00  0.000E+00  1.04691E+03  6.637E-01  1.482E+01  3.706E-02  1.221E+00
   1    9    6     6     1    1.3737E+01  2.3089E-01   1.3506E+01  0.000E+00  0.000E+00  0.000E+00  1.04358E+03  8.482E-01  1.200E+01  6.000E-02  1.283E+00
   1   10    7     6     2    1.3506E+01  2.3037E-01   1.3276E+01  0.000E+00  0.000E+00  0.000E+00  1.03902E+03  8.396E-01  1.200E+01  6.000E-02  1.280E+00
   1   11    7     6     3    1.3276E+01  2.2985E-01   1.3046E+01  0.000E+00  0.000E+00  0.000E+00  1.03447E+03  8.309E-01  1.200E+01  6.000E-02  1.277E+00
   1   12    7     6     4    1.3046E+01  2.2933E-01   1.2816E+01  0.000E+00  0.000E+00  0.000E+00  1.02991E+03  8.221E-01  1.200E+01  6.000E-02  1.274E+00
   1   13    7     6     5    1.2816E+01 -6.0451E-03   1.2822E+01  0.000E+00  0.000E+00  0.000E+00  1.02673E+03  8.179E-01  1.200E+01  2.400E-01 -8.396E-03
   1   14    9     7     1    1.5000E+02  1.3744E+00   1.4863E+02  0.000E+00  0.000E+00  0.000E+00  1.03987E+03  2.288E+00  5.529E+01  5.593E-01  8.191E-01
   1   13    8     7     2    1.4863E+02  1.9429E+00   1.4668E+02  0.000E+00  0.000E+00  0.000E+00  1.03478E+03  2.279E+00  5.525E+01  6.147E-01  1.054E+00
   1   13    7     7     3    1.4668E+02  1.6397E+00   1.4504E+02  0.000E+00  0.000E+00  0.000E+00  1.02969E+03  2.269E+00  5.521E+01  5.584E-01  9.788E-01
   1   13    6     8     1    1.5787E+02  1.0209E+00   1.5684E+02  0.000E+00  0.000E+00  0.000E+00  1.02474E+03  2.868E+00  4.158E+01  4.238E-01  8.030E-01
   1   13    5     8     2    1.5684E+02  2.7735E-01   1.5657E+02  0.000E+00  0.000E+00  0.000E+00  1.01849E+03  2.863E+00  4.152E+01  4.231E-01  2.185E-01
   1   13    4     8     3    1.5657E+02 -2.0742E+00   1.5864E+02  0.000E+00  0.000E+00  0.000E+00  1.01224E+03  2.870E+00  4.161E+01  4.240E+00 -1.631E-01
   1   13    3     8     4    1.5864E+02 -3.4665E+00   1.6211E+02  0.000E+00  0.000E+00  0.000E+00  1.00601E+03  2.888E+00  4.188E+01  4.268E+00 -2.707E-01
   1   13    2     8     5    1.6211E+02 -2.5311E+00   1.6464E+02  0.000E+00  0.000E+00  0.000E+00  9.99784E+02  2.909E+00  4.217E+01  4.298E+00 -1.963E-01
   1   13    1     8     6    1.6464E+02 -1.9644E+00   1.6660E+02  0.000E+00  0.000E+00  0.000E+00  9.94798E+02  2.923E+00  4.239E+01  2.592E+00 -2.526E-01
   1    8    6     9     1    0.0000E+00  0.0000E+00   0.0000E+00  0.000E+00  0.000E+00  0.000E+00  1.07875E+03  0.000E+00  4.000E+00  0.000E+00  1.000E+00
   1    8    5     9     2    0.0000E+00  0.0000E+00   0.0000E+00  0.000E+00  0.000E+00  0.000E+00  1.07825E+03  0.000E+00  4.000E+00  0.000E+00  1.000E+00





UNSATURATED ZONE PACKAGE VOLUMETRIC BUDGET FOR  TIME STEP    30 STRESS PERIOD   24
  ------------------------------------------------------------------------------



     CUMULATIVE VOLUMES      L**3       RATES FOR THIS TIME STEP      L**3/T
     ------------------                 ------------------------

           IN:                                      IN:
           ---                                      ---
        INFILTRATION =  1065719727.1956          INFILTRATION =           4.4075

          OUT:                                     OUT:
          ----                                     ----
              UZF ET =   995807465.4034                UZF ET =           0.7250
        UZF RECHARGE =      175481.8973          UZF RECHARGE =       0.0000E+00

            IN - OUT =    69736779.8948              IN - OUT =           3.6825

          STORAGE:                                 STORAGE:
          --------                                 --------
      STORAGE CHANGE =    69736765.1217        STORAGE CHANGE =           3.6825

 PERCENT DISCREPANCY IS DIFFERENCE BETWEEN IN-OUT MINUS CHANGE IN STORAGE
 DIVIDED BY THE AVERAGE OF IN AND OUT TIMES 100

 PERCENT DISCREPANCY =           0.00     PERCENT DISCREPANCY =           0.00






1
  VOLUMETRIC BUDGET FOR AGRICULTURAL FIELDS AT  END OF TIME STEP   30, STRESS PERIOD  24
  ------------------------------------------------------------------------------

     CUMULATIVE VOLUMES      L**3       RATES FOR THIS TIME STEP      L**3/T
     ------------------                 ------------------------

           IN:                                      IN:
           ---                                      ---
               AG WELLS  =   419684928.0000                 AG WELLS  =           0.0000
      DIVERSION SEGMENTS =   379344352.0000        DIVERSION SEGMENTS =           0.0000
           GW IRRIGATION =           0.0000             GW IRRIGATION =           0.0000
           SW IRRIGATION =           0.0000             SW IRRIGATION =           0.0000
        SYSTEM LOSSES GW =           0.0000          SYSTEM LOSSES GW =           0.0000
        SYSTEM LOSSES SW =           0.0000          SYSTEM LOSSES SW =           0.0000

                TOTAL IN =   799029248.0000                  TOTAL IN =           0.0000

          OUT:                                     OUT:
          ----                                     ----
               AG WELLS  =           0.0000                 AG WELLS  =           0.0000
      DIVERSION SEGMENTS =           0.0000        DIVERSION SEGMENTS =           0.0000
           GW IRRIGATION =   419684928.0000             GW IRRIGATION =           0.0000
           SW IRRIGATION =   379352160.0000             SW IRRIGATION =           0.0000
        SYSTEM LOSSES GW =           0.0000          SYSTEM LOSSES GW =           0.0000
        SYSTEM LOSSES SW =           0.0000          SYSTEM LOSSES SW =           0.0000

               TOTAL OUT =   799037056.0000                 TOTAL OUT =           0.0000

                IN - OUT =       -7808.0000                  IN - OUT =           0.0000

     PERCENT DISCREPANCY =          -0.00         PERCENT DISCREPANCY =           0.00



1
  VOLUMETRIC BUDGET FOR ENTIRE MODEL AT END OF TIME STEP   30, STRESS PERIOD  24
  ------------------------------------------------------------------------------

     CUMULATIVE VOLUMES      L**3       RATES FOR THIS TIME STEP      L**3/T
     ------------------                 ------------------------

           IN:                                      IN:
           ---                                      ---
             STORAGE     =   585994048.0000               STORAGE     =           6.1232
       CONSTANT HEAD     =           0.0000         CONSTANT HEAD     =           0.0000
     HEAD DEP BOUNDS     =    17449602.0000       HEAD DEP BOUNDS     =           0.2884
      STREAM LEAKAGE     =   708756736.0000        STREAM LEAKAGE     =          11.3140
        UZF RECHARGE     =      175481.8594          UZF RECHARGE     =           0.0000
               GW ET     =           0.0000                 GW ET     =           0.0000
     SURFACE LEAKAGE     =           0.0000       SURFACE LEAKAGE     =           0.0000
           AG WELLS      =           0.0000             AG WELLS      =           0.0000

                TOTAL IN =  1312375936.0000                  TOTAL IN =          17.7255

          OUT:                                     OUT:
          ----                                     ----
             STORAGE     =   253547712.0000               STORAGE     =           7.3962
       CONSTANT HEAD     =           0.0000         CONSTANT HEAD     =           0.0000
     HEAD DEP BOUNDS     =    17438870.0000       HEAD DEP BOUNDS     =           0.2871
      STREAM LEAKAGE     =   621665472.0000        STREAM LEAKAGE     =          10.0422
        UZF RECHARGE     =           0.0000          UZF RECHARGE     =           0.0000
               GW ET     =           0.0000                 GW ET     =           0.0000
     SURFACE LEAKAGE     =           0.0000       SURFACE LEAKAGE     =           0.0000
           AG WELLS      =   419684928.0000             AG WELLS      =           0.0000

               TOTAL OUT =  1312336896.0000                 TOTAL OUT =          17.7255

                IN - OUT =       39040.0000                  IN - OUT =       9.5367E-06

     PERCENT DISCREPANCY =           0.00         PERCENT DISCREPANCY =           0.00






         TIME SUMMARY AT END OF TIME STEP   30 IN STRESS PERIOD   24
                    SECONDS     MINUTES      HOURS       DAYS        YEARS
                    -----------------------------------------------------------
   TIME STEP LENGTH  87667.      1461.1      24.352      1.0147     2.77799E-03
 STRESS PERIOD TIME 2.63000E+06  43833.      730.56      30.440     8.33397E-02
         TOTAL TIME 6.05767E+07 1.00961E+06  16827.      701.12      1.9196    
1
1
                            STRESS PERIOD NO.   25, LENGTH =   2630000.    
                            -----------------------------------------------

                              NUMBER OF TIME STEPS =    30

                               MULTIPLIER FOR DELT =     1.000

                            INITIAL TIME STEP SIZE =   87666.66    

 REUSING NON-PARAMETER GHB CELLS FROM LAST STRESS PERIOD

      2 GHB CELLS

 REUSING STREAM SEGMENT DATA FROM LAST STRESS PERIOD



            AREAL INFILTRATION RATE
 READING ON UNIT   19 WITH FORMAT: (10F4.0)            

            1           2           3           4           5           6           7           8           9          10
 ........................................................................................................................
   1   1.2000E-09   0.000       0.000       0.000       0.000       0.000       0.000       0.000       0.000       0.000    
   2   2.1000E-09  2.0000E-09  8.0000E-10  8.5000E-09   0.000       0.000       0.000       0.000       0.000       0.000    
   3   5.0000E-10  1.1000E-09  8.8000E-09  5.5000E-09   0.000       0.000       0.000       0.000       0.000       0.000    
   4   8.5000E-09  1.1000E-09  1.1000E-09  1.1000E-09  2.0000E-09   0.000       0.000       0.000       0.000       0.000    
   5   8.5000E-09  1.1000E-09  1.1000E-09  1.1000E-09  1.1000E-09   0.000       0.000       0.000       0.000       0.000    
   6   8.5000E-09  5.2000E-09  2.1000E-09  1.1000E-09  1.5000E-09   0.000       0.000       0.000       0.000       0.000    
   7   8.5000E-09  5.2000E-09  2.1000E-09  1.2000E-09  2.0000E-09   0.000       0.000       0.000       0.000       0.000    
   8   5.0000E-10  5.2000E-09  2.1000E-09  1.2000E-09  5.0000E-09   0.000       0.000       0.000       0.000       0.000    
   9   5.0000E-10  5.2000E-09  2.1000E-09  1.2000E-09  5.0000E-09   0.000       0.000       0.000       0.000       0.000    
  10   5.0000E-10  5.2000E-09  2.1000E-09  1.2000E-09  5.8000E-09   0.000       0.000       0.000       0.000       0.000    
  11   1.0000E-10  1.1000E-09  1.1000E-09  1.2000E-09  5.0000E-09   0.000       0.000       0.000       0.000       0.000    
  12   1.1000E-09  1.1000E-09  1.1000E-09  1.1000E-09  2.0000E-09   0.000       0.000       0.000       0.000       0.000    
  13   1.1000E-09  2.2000E-09  2.2000E-09  2.1000E-09  1.0000E-09   0.000       0.000       0.000       0.000       0.000    
  14   2.0000E-10  5.5000E-09  5.5000E-09  5.2000E-09  1.0000E-09   0.000       0.000       0.000       0.000       0.000    
  15    0.000      8.8000E-09  8.8000E-09   0.000       0.000       0.000       0.000       0.000       0.000       0.000    

                  ET RATE =  5.000000E-10

 USING ET EXTINCTION DEPTH FROM PREVIOUS STRESS PERIOD. CURRENT PERIOD IS:      25

 USING EXTINCTION WATER CONTENT FROM PREVIOUS STRESS PERIOD. CURRENT PERIOD IS:      25

 USING AIR ENTRY PRESSURE FROM PREVIOUS STRESS PERIOD. CURRENT PERIOD IS:      25

 USING ROOT PRESSURE HEAD FROM PREVIOUS STRESS PERIOD. CURRENT PERIOD IS:      25

 USING ROOT ACTIVITY FROM PREVIOUS STRESS PERIOD. CURRENT PERIOD IS:      25

 PROCESSING AG STRESS PERIOD DATA

 READING AG STRESS PERIOD DATA

 READING IRRIGATION SEGMENT

 READING IRRIGATION WELL

 READING SUPPLEMENTAL WELL

 END PROCESSING AG STRESS PERIOD DATA OPTIONS
 
 SOLVING FOR HEAD 
                                                   Max.-Head-Change                         Max.-Flux-Residual
  Residual-Control   Outer-Iter.   Inner-Iter.     Column Row Layer    Maximum-Head-Change  Column Row Layer    Maximum-Flux-Residual          L2-NORM 
          0                 1           2             4    7     1       0.2205650371E-01       4    7    1         0.1161157800E+01      0.2468186349E+01
          0                 2           2             4    7     1      -0.2145506984E-02       4    7    1        -0.1161164970E+00      0.2468183641E+00
          0                 3           2             4    7     1       0.1461009679E-03       4    7    1         0.8128151514E-02      0.1727721873E-01
          0                 4           1             4    7     1      -0.5813494821E-05       4    7    1        -0.3324418940E-03      0.7066382393E-03

    ------------------------------------------------
       NWT REQUIRED            4 OUTER ITERATIONS 
       AND A TOTAL OF          7 INNER ITERATIONS.
    ------------------------------------------------

 NO OUTPUT CONTROL FOR STRESS PERIOD   25   TIME STEP    1
 
 SOLVING FOR HEAD 
                                                   Max.-Head-Change                         Max.-Flux-Residual
  Residual-Control   Outer-Iter.   Inner-Iter.     Column Row Layer    Maximum-Head-Change  Column Row Layer    Maximum-Flux-Residual          L2-NORM 
          0                 1           2             4    7     1       0.2177028404E-01       4    7    1         0.1146022302E+01      0.2441471023E+01
          0                 2           2             4    7     1      -0.2117665342E-02       4    7    1        -0.1146029286E+00      0.2441466169E+00
          0                 3           2             4    7     1       0.1442050576E-03       4    7    1         0.8022201841E-02      0.1709017652E-01
          0                 4           1             4    7     1      -0.5738054813E-05       4    7    1        -0.3281085451E-03      0.6989888516E-03

    ------------------------------------------------
       NWT REQUIRED            4 OUTER ITERATIONS 
       AND A TOTAL OF          7 INNER ITERATIONS.
    ------------------------------------------------

 NO OUTPUT CONTROL FOR STRESS PERIOD   25   TIME STEP    2
 
 SOLVING FOR HEAD 
                                                   Max.-Head-Change                         Max.-Flux-Residual
  Residual-Control   Outer-Iter.   Inner-Iter.     Column Row Layer    Maximum-Head-Change  Column Row Layer    Maximum-Flux-Residual          L2-NORM 
          0                 1           2             4    7     1       0.2148895476E-01       4    7    1         0.1131145534E+01      0.2414975104E+01
          0                 2           2             4    7     1      -0.2090299408E-02       4    7    1        -0.1131152339E+00      0.2414970420E+00
          0                 3           2             4    7     1       0.1423415420E-03       4    7    1         0.7918063357E-02      0.1690471379E-01
          0                 4           1             4    7     1      -0.5663903543E-05       4    7    1        -0.3238492727E-03      0.6914106112E-03

    ------------------------------------------------
       NWT REQUIRED            4 OUTER ITERATIONS 
       AND A TOTAL OF          7 INNER ITERATIONS.
    ------------------------------------------------

 NO OUTPUT CONTROL FOR STRESS PERIOD   25   TIME STEP    3
 
 SOLVING FOR HEAD 
                                                   Max.-Head-Change                         Max.-Flux-Residual
  Residual-Control   Outer-Iter.   Inner-Iter.     Column Row Layer    Maximum-Head-Change  Column Row Layer    Maximum-Flux-Residual          L2-NORM 
          0                 1           2             4    7     1       0.2121255585E-01       4    7    1         0.1116529645E+01      0.2388941890E+01
          0                 2           2             4    7     1      -0.2063413071E-02       4    7    1        -0.1116536275E+00      0.2388937544E+00
          0                 3           2             4    7     1       0.1405106844E-03       4    7    1         0.7815751013E-02      0.1672247090E-01
          0                 4           1             4    7     1      -0.5591052064E-05       4    7    1        -0.3196646912E-03      0.6839364492E-03

    ------------------------------------------------
       NWT REQUIRED            4 OUTER ITERATIONS 
       AND A TOTAL OF          7 INNER ITERATIONS.
    ------------------------------------------------

 NO OUTPUT CONTROL FOR STRESS PERIOD   25   TIME STEP    4
 
 SOLVING FOR HEAD 
                                                   Max.-Head-Change                         Max.-Flux-Residual
  Residual-Control   Outer-Iter.   Inner-Iter.     Column Row Layer    Maximum-Head-Change  Column Row Layer    Maximum-Flux-Residual          L2-NORM 
          0                 1           2             4    7     1       0.2094098784E-01       4    7    1         0.1102169388E+01      0.2363363768E+01
          0                 2           2             4    7     1      -0.2036996657E-02       4    7    1        -0.1102175847E+00      0.2363359609E+00
          0                 3           2             4    7     1       0.1387118274E-03       4    7    1         0.7715228157E-02      0.1654343498E-01
          0                 4           1             4    7     1      -0.5519474242E-05       4    7    1        -0.3155533113E-03      0.6766175606E-03

    ------------------------------------------------
       NWT REQUIRED            4 OUTER ITERATIONS 
       AND A TOTAL OF          7 INNER ITERATIONS.
    ------------------------------------------------

 NO OUTPUT CONTROL FOR STRESS PERIOD   25   TIME STEP    5
 
 SOLVING FOR HEAD 
                                                   Max.-Head-Change                         Max.-Flux-Residual
  Residual-Control   Outer-Iter.   Inner-Iter.     Column Row Layer    Maximum-Head-Change  Column Row Layer    Maximum-Flux-Residual          L2-NORM 
          0                 1           2             4    7     1       0.2067415207E-01       4    7    1         0.1088059606E+01      0.2338230022E+01
          0                 2           2             4    7     1      -0.2011040569E-02       4    7    1        -0.1088065900E+00      0.2338226051E+00
          0                 3           2             4    7     1       0.1369443163E-03       4    7    1         0.7616458644E-02      0.1636750631E-01
          0                 4           1             4    7     1      -0.5449142906E-05       4    7    1        -0.3115136196E-03      0.6694226913E-03

    ------------------------------------------------
       NWT REQUIRED            4 OUTER ITERATIONS 
       AND A TOTAL OF          7 INNER ITERATIONS.
    ------------------------------------------------

 NO OUTPUT CONTROL FOR STRESS PERIOD   25   TIME STEP    6
 
 SOLVING FOR HEAD 
                                                   Max.-Head-Change                         Max.-Flux-Residual
  Residual-Control   Outer-Iter.   Inner-Iter.     Column Row Layer    Maximum-Head-Change  Column Row Layer    Maximum-Flux-Residual          L2-NORM 
          0                 1           2             4    7     1       0.2041195264E-01       4    7    1         0.1074195182E+01      0.2313531641E+01
          0                 2           2             4    7     1      -0.1985535475E-02       4    7    1        -0.1074201315E+00      0.2313527849E+00
          0                 3           2             4    7     1       0.1352075161E-03       4    7    1         0.7519406655E-02      0.1619463222E-01
          0                 4           1             4    7     1      -0.5380034110E-05       4    7    1        -0.3075441828E-03      0.6623618688E-03

    ------------------------------------------------
       NWT REQUIRED            4 OUTER ITERATIONS 
       AND A TOTAL OF          7 INNER ITERATIONS.
    ------------------------------------------------

 NO OUTPUT CONTROL FOR STRESS PERIOD   25   TIME STEP    7
 
 SOLVING FOR HEAD 
                                                   Max.-Head-Change                         Max.-Flux-Residual
  Residual-Control   Outer-Iter.   Inner-Iter.     Column Row Layer    Maximum-Head-Change  Column Row Layer    Maximum-Flux-Residual          L2-NORM 
          0                 1           2             4    7     1       0.2015429257E-01       4    7    1         0.1060571146E+01      0.2289255306E+01
          0                 2           2             4    7     1      -0.1960471944E-02       4    7    1        -0.1060577122E+00      0.2289251622E+00
          0                 3           2             4    7     1       0.1335007850E-03       4    7    1         0.7424037414E-02      0.1602468756E-01
          0                 4           1             4    7     1      -0.5312121374E-05       4    7    1        -0.3036435769E-03      0.6554051223E-03

    ------------------------------------------------
       NWT REQUIRED            4 OUTER ITERATIONS 
       AND A TOTAL OF          7 INNER ITERATIONS.
    ------------------------------------------------

 NO OUTPUT CONTROL FOR STRESS PERIOD   25   TIME STEP    8
 
 SOLVING FOR HEAD 
                                                   Max.-Head-Change                         Max.-Flux-Residual
  Residual-Control   Outer-Iter.   Inner-Iter.     Column Row Layer    Maximum-Head-Change  Column Row Layer    Maximum-Flux-Residual          L2-NORM 
          0                 1           2             4    7     1       0.1990108067E-01       4    7    1         0.1047182467E+01      0.2265392258E+01
          0                 2           2             4    7     1      -0.1935841106E-02       4    7    1        -0.1047188291E+00      0.2265388671E+00
          0                 3           2             4    7     1       0.1318235183E-03       4    7    1         0.7330315694E-02      0.1585765542E-01
          0                 4           1             4    7     1      -0.5245381674E-05       4    7    1        -0.2998103610E-03      0.6485750381E-03

    ------------------------------------------------
       NWT REQUIRED            4 OUTER ITERATIONS 
       AND A TOTAL OF          7 INNER ITERATIONS.
    ------------------------------------------------

 NO OUTPUT CONTROL FOR STRESS PERIOD   25   TIME STEP    9
 
 SOLVING FOR HEAD 
                                                   Max.-Head-Change                         Max.-Flux-Residual
  Residual-Control   Outer-Iter.   Inner-Iter.     Column Row Layer    Maximum-Head-Change  Column Row Layer    Maximum-Flux-Residual          L2-NORM 
          0                 1           2             4    7     1       0.1965222325E-01       4    7    1         0.1034024420E+01      0.2241926804E+01
          0                 2           2             4    7     1      -0.1911633957E-02       4    7    1        -0.1034030095E+00      0.2242025682E+00
          0                 3           2             4    7     1       0.1301751033E-03       4    7    1         0.7238208426E-02      0.1569411730E-01
          0                 4           1             4    7     1      -0.5179789566E-05       4    7    1        -0.2960431607E-03      0.6418944808E-03

    ------------------------------------------------
       NWT REQUIRED            4 OUTER ITERATIONS 
       AND A TOTAL OF          7 INNER ITERATIONS.
    ------------------------------------------------

 NO OUTPUT CONTROL FOR STRESS PERIOD   25   TIME STEP   10
 
 SOLVING FOR HEAD 
                                                   Max.-Head-Change                         Max.-Flux-Residual
  Residual-Control   Outer-Iter.   Inner-Iter.     Column Row Layer    Maximum-Head-Change  Column Row Layer    Maximum-Flux-Residual          L2-NORM 
          0                 1           2             4    7     1       0.1940776150E-01       4    7    1         0.1021099463E+01      0.2218855338E+01
          0                 2           2             4    7     1      -0.1887854171E-02       4    7    1        -0.1021104995E+00      0.2218851949E+00
          0                 3           2             4    7     1       0.1285557901E-03       4    7    1         0.7147732812E-02      0.1553190510E-01
          0                 4           1             4    7     1      -0.5115355872E-05       4    7    1        -0.2923427055E-03      0.6352565923E-03

    ------------------------------------------------
       NWT REQUIRED            4 OUTER ITERATIONS 
       AND A TOTAL OF          7 INNER ITERATIONS.
    ------------------------------------------------

 NO OUTPUT CONTROL FOR STRESS PERIOD   25   TIME STEP   11
 
 SOLVING FOR HEAD 
                                                   Max.-Head-Change                         Max.-Flux-Residual
  Residual-Control   Outer-Iter.   Inner-Iter.     Column Row Layer    Maximum-Head-Change  Column Row Layer    Maximum-Flux-Residual          L2-NORM 
          0                 1           2             4    7     1       0.1916746610E-01       4    7    1         0.1008395102E+01      0.2196129040E+01
          0                 2           2             4    7     1      -0.1864479774E-02       4    7    1        -0.1008400494E+00      0.2196125581E+00
          0                 3           1             4    7     1       0.1269640850E-03       4    7    1         0.7058801420E-02      0.1537275330E-01
          0                 4           1             4    7     1      -0.5052022452E-05       4    7    1        -0.2887053924E-03      0.6352035097E-03

    ------------------------------------------------
       NWT REQUIRED            4 OUTER ITERATIONS 
       AND A TOTAL OF          6 INNER ITERATIONS.
    ------------------------------------------------

 NO OUTPUT CONTROL FOR STRESS PERIOD   25   TIME STEP   12
 
 SOLVING FOR HEAD 
                                                   Max.-Head-Change                         Max.-Flux-Residual
  Residual-Control   Outer-Iter.   Inner-Iter.     Column Row Layer    Maximum-Head-Change  Column Row Layer    Maximum-Flux-Residual          L2-NORM 
          0                 1           2             4    7     1       0.1893138747E-01       4    7    1         0.9959140791E+00      0.2173792862E+01
          0                 2           2             4    7     1      -0.1841515559E-02       4    7    1        -0.9959193349E-01      0.2173789608E+00
          0                 3           1             4    7     1       0.1254003091E-03       4    7    1         0.6971433392E-02      0.1521646755E-01
          0                 4           1             4    7     1      -0.4989798516E-05       4    7    1        -0.2851320378E-03      0.6223519972E-03

    ------------------------------------------------
       NWT REQUIRED            4 OUTER ITERATIONS 
       AND A TOTAL OF          6 INNER ITERATIONS.
    ------------------------------------------------

 NO OUTPUT CONTROL FOR STRESS PERIOD   25   TIME STEP   13
 
 SOLVING FOR HEAD 
                                                   Max.-Head-Change                         Max.-Flux-Residual
  Residual-Control   Outer-Iter.   Inner-Iter.     Column Row Layer    Maximum-Head-Change  Column Row Layer    Maximum-Flux-Residual          L2-NORM 
          0                 1           2             4    7     1       0.1869916046E-01       4    7    1         0.9836370396E+00      0.2151809259E+01
          0                 2           2             4    7     1      -0.1818926008E-02       4    7    1        -0.9836421630E-01      0.2151805829E+00
          0                 3           1             4    7     1       0.1238620463E-03       4    7    1         0.6885493279E-02      0.1506255801E-01
          0                 4           1             4    7     1      -0.4928589316E-05       4    7    1        -0.2816170786E-03      0.6160472642E-03

    ------------------------------------------------
       NWT REQUIRED            4 OUTER ITERATIONS 
       AND A TOTAL OF          6 INNER ITERATIONS.
    ------------------------------------------------

 NO OUTPUT CONTROL FOR STRESS PERIOD   25   TIME STEP   14
 
 SOLVING FOR HEAD 
                                                   Max.-Head-Change                         Max.-Flux-Residual
  Residual-Control   Outer-Iter.   Inner-Iter.     Column Row Layer    Maximum-Head-Change  Column Row Layer    Maximum-Flux-Residual          L2-NORM 
          0                 1           2             4    7     1       0.1847111068E-01       4    7    1         0.9715816751E+00      0.2130190968E+01
          0                 2           2             4    7     1      -0.1796742792E-02       4    7    1        -0.9715866698E-01      0.2130187558E+00
          0                 3           1             4    7     1       0.1223514533E-03       4    7    1         0.6801104905E-02      0.1491125464E-01
          0                 4           1             4    7     1      -0.4868481541E-05       4    7    1        -0.2781655967E-03      0.6098820787E-03

    ------------------------------------------------
       NWT REQUIRED            4 OUTER ITERATIONS 
       AND A TOTAL OF          6 INNER ITERATIONS.
    ------------------------------------------------

 NO OUTPUT CONTROL FOR STRESS PERIOD   25   TIME STEP   15
 
 SOLVING FOR HEAD 
                                                   Max.-Head-Change                         Max.-Flux-Residual
  Residual-Control   Outer-Iter.   Inner-Iter.     Column Row Layer    Maximum-Head-Change  Column Row Layer    Maximum-Flux-Residual          L2-NORM 
          0                 1           2             4    7     1       0.1824687661E-01       4    7    1         0.9597282435E+00      0.2108929909E+01
          0                 2           2             4    7     1      -0.1774930746E-02       4    7    1        -0.9597331132E-01      0.2108926297E+00
          0                 3           1             4    7     1       0.1208661353E-03       4    7    1         0.6718130076E-02      0.1476241077E-01
          0                 4           1             4    7     1      -0.4809379291E-05       4    7    1        -0.2747719091E-03      0.6037975959E-03

    ------------------------------------------------
       NWT REQUIRED            4 OUTER ITERATIONS 
       AND A TOTAL OF          6 INNER ITERATIONS.
    ------------------------------------------------

 NO OUTPUT CONTROL FOR STRESS PERIOD   25   TIME STEP   16
 
 SOLVING FOR HEAD 
                                                   Max.-Head-Change                         Max.-Flux-Residual
  Residual-Control   Outer-Iter.   Inner-Iter.     Column Row Layer    Maximum-Head-Change  Column Row Layer    Maximum-Flux-Residual          L2-NORM 
          0                 1           2             4    7     1       0.1802651686E-01       4    7    1         0.9480799762E+00      0.2088018068E+01
          0                 2           2             4    7     1      -0.1753495572E-02       4    7    1        -0.9480847244E-01      0.2088014647E+00
          0                 3           1             4    7     1       0.1194064817E-03       4    7    1         0.6636591444E-02      0.1461604185E-01
          0                 4           1             4    7     1      -0.4751298683E-05       4    7    1        -0.2714369953E-03      0.5977949147E-03

    ------------------------------------------------
       NWT REQUIRED            4 OUTER ITERATIONS 
       AND A TOTAL OF          6 INNER ITERATIONS.
    ------------------------------------------------

 NO OUTPUT CONTROL FOR STRESS PERIOD   25   TIME STEP   17
 
 SOLVING FOR HEAD 
                                                   Max.-Head-Change                         Max.-Flux-Residual
  Residual-Control   Outer-Iter.   Inner-Iter.     Column Row Layer    Maximum-Head-Change  Column Row Layer    Maximum-Flux-Residual          L2-NORM 
          0                 1           2             4    7     1       0.1780980891E-01       4    7    1         0.9366252605E+00      0.2067438100E+01
          0                 2           2             4    7     1      -0.1732415622E-02       4    7    1        -0.9366298903E-01      0.2067434630E+00
          0                 3           1             4    7     1       0.1179710171E-03       4    7    1         0.6556407690E-02      0.1447198027E-01
          0                 4           1             4    7     1      -0.4694180196E-05       4    7    1        -0.2681574770E-03      0.5919064827E-03

    ------------------------------------------------
       NWT REQUIRED            4 OUTER ITERATIONS 
       AND A TOTAL OF          6 INNER ITERATIONS.
    ------------------------------------------------

 NO OUTPUT CONTROL FOR STRESS PERIOD   25   TIME STEP   18
 
 SOLVING FOR HEAD 
                                                   Max.-Head-Change                         Max.-Flux-Residual
  Residual-Control   Outer-Iter.   Inner-Iter.     Column Row Layer    Maximum-Head-Change  Column Row Layer    Maximum-Flux-Residual          L2-NORM 
          0                 1           2             4    7     1       0.1759694324E-01       4    7    1         0.9253745370E+00      0.2047188823E+01
          0                 2           2             4    7     1      -0.1711709427E-02       4    7    1        -0.9253790518E-01      0.2047185330E+00
          0                 3           1             4    7     1       0.1165610033E-03       4    7    1         0.6477651891E-02      0.1433025098E-01
          0                 4           1             4    7     1      -0.4638074142E-05       4    7    1        -0.2649363505E-03      0.5861067439E-03

    ------------------------------------------------
       NWT REQUIRED            4 OUTER ITERATIONS 
       AND A TOTAL OF          6 INNER ITERATIONS.
    ------------------------------------------------

 NO OUTPUT CONTROL FOR STRESS PERIOD   25   TIME STEP   19
 
 SOLVING FOR HEAD 
                                                   Max.-Head-Change                         Max.-Flux-Residual
  Residual-Control   Outer-Iter.   Inner-Iter.     Column Row Layer    Maximum-Head-Change  Column Row Layer    Maximum-Flux-Residual          L2-NORM 
          0                 1           2             4    7     1       0.1738756725E-01       4    7    1         0.9143083782E+00      0.2027267347E+01
          0                 2           2             4    7     1      -0.1691342687E-02       4    7    1        -0.9143127813E-01      0.2027263847E+00
          0                 3           1             4    7     1       0.1151741051E-03       4    7    1         0.6400188049E-02      0.1419078386E-01
          0                 4           1             4    7     1      -0.4582888302E-05       4    7    1        -0.2617680711E-03      0.5804213363E-03

    ------------------------------------------------
       NWT REQUIRED            4 OUTER ITERATIONS 
       AND A TOTAL OF          6 INNER ITERATIONS.
    ------------------------------------------------

 NO OUTPUT CONTROL FOR STRESS PERIOD   25   TIME STEP   20
 
 SOLVING FOR HEAD 
                                                   Max.-Head-Change                         Max.-Flux-Residual
  Residual-Control   Outer-Iter.   Inner-Iter.     Column Row Layer    Maximum-Head-Change  Column Row Layer    Maximum-Flux-Residual          L2-NORM 
          0                 1           2             4    7     1       0.1718174046E-01       4    7    1         0.9034304801E+00      0.2007657043E+01
          0                 2           2             4    7     1      -0.1671321192E-02       4    7    1        -0.9034347746E-01      0.2007653507E+00
          0                 3           1             4    7     1       0.1138107176E-03       4    7    1         0.6324042095E-02      0.1405351824E-01
          0                 4           1             4    7     1      -0.4528637759E-05       4    7    1        -0.2586537053E-03      0.5747890215E-03

    ------------------------------------------------
       NWT REQUIRED            4 OUTER ITERATIONS 
       AND A TOTAL OF          6 INNER ITERATIONS.
    ------------------------------------------------

 NO OUTPUT CONTROL FOR STRESS PERIOD   25   TIME STEP   21
 
 SOLVING FOR HEAD 
                                                   Max.-Head-Change                         Max.-Flux-Residual
  Residual-Control   Outer-Iter.   Inner-Iter.     Column Row Layer    Maximum-Head-Change  Column Row Layer    Maximum-Flux-Residual          L2-NORM 
          0                 1           2             4    7     1       0.1697938640E-01       4    7    1         0.8927366025E+00      0.1988359844E+01
          0                 2           2             4    7     1      -0.1651637504E-02       4    7    1        -0.8927407912E-01      0.1988356224E+00
          0                 3           1             4    7     1       0.1124703327E-03       4    7    1         0.6249184268E-02      0.1391843379E-01
          0                 4           1             4    7     1      -0.4475302711E-05       4    7    1        -0.2555920123E-03      0.5692489254E-03

    ------------------------------------------------
       NWT REQUIRED            4 OUTER ITERATIONS 
       AND A TOTAL OF          6 INNER ITERATIONS.
    ------------------------------------------------

 NO OUTPUT CONTROL FOR STRESS PERIOD   25   TIME STEP   22
 
 SOLVING FOR HEAD 
                                                   Max.-Head-Change                         Max.-Flux-Residual
  Residual-Control   Outer-Iter.   Inner-Iter.     Column Row Layer    Maximum-Head-Change  Column Row Layer    Maximum-Flux-Residual          L2-NORM 
          0                 1           2             4    7     1       0.1678043078E-01       4    7    1         0.8822227816E+00      0.1969367704E+01
          0                 2           2             4    7     1      -0.1632284394E-02       4    7    1        -0.8822268675E-01      0.1969363909E+00
          0                 3           1             4    7     1       0.1111524594E-03       4    7    1         0.6175586867E-02      0.1378547402E-01
          0                 4           1             4    7     1      -0.4422863470E-05       4    7    1        -0.2525818927E-03      0.5638207050E-03

    ------------------------------------------------
       NWT REQUIRED            4 OUTER ITERATIONS 
       AND A TOTAL OF          6 INNER ITERATIONS.
    ------------------------------------------------

 NO OUTPUT CONTROL FOR STRESS PERIOD   25   TIME STEP   23
 
 SOLVING FOR HEAD 
                                                   Max.-Head-Change                         Max.-Flux-Residual
  Residual-Control   Outer-Iter.   Inner-Iter.     Column Row Layer    Maximum-Head-Change  Column Row Layer    Maximum-Flux-Residual          L2-NORM 
          0                 1           2             4    7     1       0.1658466168E-01       4    7    1         0.8718778363E+00      0.1950664165E+01
          0                 2           2             4    7     1      -0.1613241252E-02       4    7    1        -0.8718818223E-01      0.1950660411E+00
          0                 3           1             4    7     1       0.1098556933E-03       4    7    1         0.6103171616E-02      0.1365457274E-01
          0                 4           1             4    7     1      -0.4371263510E-05       4    7    1        -0.2496200868E-03      0.5584745816E-03

    ------------------------------------------------
       NWT REQUIRED            4 OUTER ITERATIONS 
       AND A TOTAL OF          6 INNER ITERATIONS.
    ------------------------------------------------

 NO OUTPUT CONTROL FOR STRESS PERIOD   25   TIME STEP   24
 
 SOLVING FOR HEAD 
                                                   Max.-Head-Change                         Max.-Flux-Residual
  Residual-Control   Outer-Iter.   Inner-Iter.     Column Row Layer    Maximum-Head-Change  Column Row Layer    Maximum-Flux-Residual          L2-NORM 
          0                 1           2             4    7     1       0.1639241895E-01       4    7    1         0.8617200911E+00      0.1932261695E+01
          0                 2           2             4    7     1      -0.1594541132E-02       4    7    1        -0.8617239799E-01      0.1932257832E+00
          0                 3           1             4    7     1       0.1085822858E-03       4    7    1         0.6032066784E-02      0.1352575138E-01
          0                 4           1             4    7     1      -0.4320593320E-05       4    7    1        -0.2467118866E-03      0.5532105236E-03

    ------------------------------------------------
       NWT REQUIRED            4 OUTER ITERATIONS 
       AND A TOTAL OF          6 INNER ITERATIONS.
    ------------------------------------------------

 NO OUTPUT CONTROL FOR STRESS PERIOD   25   TIME STEP   25
 
 SOLVING FOR HEAD 
                                                   Max.-Head-Change                         Max.-Flux-Residual
  Residual-Control   Outer-Iter.   Inner-Iter.     Column Row Layer    Maximum-Head-Change  Column Row Layer    Maximum-Flux-Residual          L2-NORM 
          0                 1           2             4    7     1       0.1620321733E-01       4    7    1         0.8517231992E+00      0.1914138369E+01
          0                 2           2             4    7     1      -0.1576136834E-02       4    7    1        -0.8517269935E-01      0.1914134557E+00
          0                 3           1             4    7     1       0.1073290229E-03       4    7    1         0.5962087944E-02      0.1339887810E-01
          0                 4           1             4    7     1      -0.4270724994E-05       4    7    1        -0.2438497600E-03      0.5480116021E-03

    ------------------------------------------------
       NWT REQUIRED            4 OUTER ITERATIONS 
       AND A TOTAL OF          6 INNER ITERATIONS.
    ------------------------------------------------

 NO OUTPUT CONTROL FOR STRESS PERIOD   25   TIME STEP   26
 
 SOLVING FOR HEAD 
                                                   Max.-Head-Change                         Max.-Flux-Residual
  Residual-Control   Outer-Iter.   Inner-Iter.     Column Row Layer    Maximum-Head-Change  Column Row Layer    Maximum-Flux-Residual          L2-NORM 
          0                 1           2             4    7     1       0.1601712970E-01       4    7    1         0.8418913126E+00      0.1896295196E+01
          0                 2           2             4    7     1      -0.1558035446E-02       4    7    1        -0.8418950150E-01      0.1896291182E+00
          0                 3           1             4    7     1       0.1060963868E-03       4    7    1         0.5893264145E-02      0.1327397875E-01
          0                 4           1             4    7     1      -0.4221677413E-05       4    7    1        -0.2410348616E-03      0.5429079349E-03

    ------------------------------------------------
       NWT REQUIRED            4 OUTER ITERATIONS 
       AND A TOTAL OF          6 INNER ITERATIONS.
    ------------------------------------------------

 NO OUTPUT CONTROL FOR STRESS PERIOD   25   TIME STEP   27
 
 SOLVING FOR HEAD 
                                                   Max.-Head-Change                         Max.-Flux-Residual
  Residual-Control   Outer-Iter.   Inner-Iter.     Column Row Layer    Maximum-Head-Change  Column Row Layer    Maximum-Flux-Residual          L2-NORM 
          0                 1           2             4    7     1       0.1583422156E-01       4    7    1         0.8322282103E+00      0.1878727355E+01
          0                 2           2             4    7     1      -0.1540243339E-02       4    7    1        -0.8322318232E-01      0.1878723379E+00
          0                 3           1             4    7     1       0.1048848114E-03       4    7    1         0.5825621859E-02      0.1315101107E-01
          0                 4           1             4    7     1      -0.4173467615E-05       4    7    1        -0.2382682833E-03      0.5378764513E-03

    ------------------------------------------------
       NWT REQUIRED            4 OUTER ITERATIONS 
       AND A TOTAL OF          6 INNER ITERATIONS.
    ------------------------------------------------

 NO OUTPUT CONTROL FOR STRESS PERIOD   25   TIME STEP   28
 
 SOLVING FOR HEAD 
                                                   Max.-Head-Change                         Max.-Flux-Residual
  Residual-Control   Outer-Iter.   Inner-Iter.     Column Row Layer    Maximum-Head-Change  Column Row Layer    Maximum-Flux-Residual          L2-NORM 
          0                 1           2             4    7     1       0.1565415231E-01       4    7    1         0.8227153026E+00      0.1861423611E+01
          0                 2           2             4    7     1      -0.1522727382E-02       4    7    1        -0.8227188284E-01      0.1861419295E+00
          0                 3           1             4    7     1       0.1036920409E-03       4    7    1         0.5759030945E-02      0.1302985086E-01
          0                 4           1             4    7     1      -0.4126005917E-05       4    7    1        -0.2355447068E-03      0.5329240872E-03

    ------------------------------------------------
       NWT REQUIRED            4 OUTER ITERATIONS 
       AND A TOTAL OF          6 INNER ITERATIONS.
    ------------------------------------------------

 NO OUTPUT CONTROL FOR STRESS PERIOD   25   TIME STEP   29
 
 SOLVING FOR HEAD 
                                                   Max.-Head-Change                         Max.-Flux-Residual
  Residual-Control   Outer-Iter.   Inner-Iter.     Column Row Layer    Maximum-Head-Change  Column Row Layer    Maximum-Flux-Residual          L2-NORM 
          0                 1           2             4    7     1       0.1547727027E-01       4    7    1         0.8133715738E+00      0.1844452265E+01
          0                 2           2             4    7     1      -0.1505521458E-02       4    7    1        -0.8133750151E-01      0.1844447101E+00
          0                 3           1             4    7     1       0.1025203823E-03       4    7    1         0.5693624301E-02      0.1291106663E-01
          0                 4           1             4    7     1      -0.4079384534E-05       4    7    1        -0.2328695637E-03      0.5280553067E-03

    ------------------------------------------------
       NWT REQUIRED            4 OUTER ITERATIONS 
       AND A TOTAL OF          6 INNER ITERATIONS.
    ------------------------------------------------

 NO OUTPUT CONTROL FOR STRESS PERIOD   25   TIME STEP   30



 STREAM LISTING     PERIOD     25   STEP       30

 LAYER ROW COL. STREAM  RCH.  FLOW INTO     FLOW TO   FLOW OUT OF   OVRLND.     DIRECT     STREAM       STREAM     STREAM     STREAM   STREAMBED  STREAMBED
                SEG.NO.  NO.  STRM. RCH.    AQUIFER    STRM. RCH.    RUNOFF     PRECIP       ET          HEAD       DEPTH      WIDTH   CONDCTNC.   GRADIENT

   1    1    1     1     1    7.4712E+00  1.2395E-01   7.3473E+00  0.000E+00  0.000E+00  0.000E+00  1.09386E+03  8.152E-01  7.220E+00  3.249E-02  1.272E+00
   1    2    2     1     2    7.3473E+00  1.9029E-01   7.1570E+00  0.000E+00  0.000E+00  0.000E+00  1.08887E+03  8.094E-01  7.136E+00  4.995E-02  1.270E+00
   1    3    3     1     3    7.1570E+00  1.6067E-01   6.9963E+00  0.000E+00  0.000E+00  0.000E+00  1.08322E+03  8.029E-01  7.042E+00  4.225E-02  1.268E+00
   1    3    4     1     4    6.9963E+00  1.4674E-01   6.8496E+00  0.000E+00  0.000E+00  0.000E+00  1.07821E+03  7.979E-01  6.962E+00  3.864E-02  1.266E+00
   1    4    5     2     1    4.8496E+00  2.6862E-01   4.5810E+00  0.000E+00  0.000E+00  0.000E+00  1.07238E+03  4.439E-01  1.200E+01  7.800E-02  1.148E+00
   1    5    6     2     2    4.5810E+00  2.0582E-01   4.3752E+00  0.000E+00  0.000E+00  0.000E+00  1.06694E+03  4.303E-01  1.200E+01  6.000E-02  1.143E+00
   1    6    6     2     3    4.3752E+00  2.0510E-01   4.1701E+00  0.000E+00  0.000E+00  0.000E+00  1.06221E+03  4.184E-01  1.200E+01  6.000E-02  1.139E+00
   1    7    6     2     4    4.1701E+00  2.0437E-01   3.9657E+00  0.000E+00  0.000E+00  0.000E+00  1.05748E+03  4.062E-01  1.200E+01  6.000E-02  1.135E+00
   1    8    6     2     5    3.9657E+00  2.0363E-01   3.7620E+00  0.000E+00  0.000E+00  0.000E+00  1.05275E+03  3.939E-01  1.200E+01  6.000E-02  1.131E+00
   1    3    5     3     1    2.0000E+00  2.8252E-01   1.7175E+00  0.000E+00  0.000E+00  0.000E+00  1.07555E+03  1.909E+00  9.636E+00  7.227E-02  1.955E+00
   1    3    6     3     2    1.7175E+00  2.4905E-01   1.4684E+00  0.000E+00  0.000E+00  0.000E+00  1.07264E+03  1.727E+00  8.909E+00  6.682E-02  1.864E+00
   1    3    7     3     3    1.4684E+00  1.9718E-01   1.2712E+00  0.000E+00  0.000E+00  0.000E+00  1.06987E+03  1.555E+00  8.218E+00  5.547E-02  1.777E+00
   1    4    8     3     4    1.2712E+00  2.2567E-01   1.0456E+00  0.000E+00  0.000E+00  0.000E+00  1.06682E+03  1.364E+00  7.455E+00  6.709E-02  1.682E+00
   1    5    8     3     5    1.0456E+00  1.5790E-01   8.8768E-01  0.000E+00  0.000E+00  0.000E+00  1.06362E+03  1.164E+00  6.655E+00  4.991E-02  1.582E+00
   1    6    8     3     6    8.8768E-01  5.5980E-02   8.3170E-01  0.000E+00  0.000E+00  0.000E+00  1.06158E+03  1.036E+00  6.145E+00  1.844E-02  1.518E+00
   1    5   10     4     1    1.0000E+01  9.0919E-02   9.9091E+00  0.000E+00  0.000E+00  0.000E+00  1.07836E+03  6.368E-01  1.000E+01  2.500E-02  1.212E+00
   1    5    9     4     2    9.9091E+00  1.8158E-01   9.7275E+00  0.000E+00  0.000E+00  0.000E+00  1.07154E+03  6.315E-01  1.000E+01  5.000E-02  1.211E+00
   1    6    8     4     3    9.7275E+00  1.2689E-01   9.6006E+00  0.000E+00  0.000E+00  0.000E+00  1.06381E+03  6.256E-01  1.000E+01  3.500E-02  1.209E+00
   1    6    8     5     1    1.0432E+01  2.2686E-01   1.0205E+01  0.000E+00  0.000E+00  0.000E+00  1.05868E+03  6.790E-01  1.542E+01  6.166E-02  1.226E+00
   1    7    7     5     2    1.0205E+01  2.7894E-01   9.9265E+00  0.000E+00  0.000E+00  0.000E+00  1.05417E+03  6.732E-01  1.519E+01  7.594E-02  1.224E+00
   1    8    7     5     3    9.9265E+00  1.9221E-01   9.7343E+00  0.000E+00  0.000E+00  0.000E+00  1.04992E+03  6.676E-01  1.497E+01  5.241E-02  1.223E+00
   1    8    6     5     4    9.7343E+00  1.3577E-01   9.5985E+00  0.000E+00  0.000E+00  0.000E+00  1.04691E+03  6.637E-01  1.482E+01  3.706E-02  1.221E+00
   1    9    6     6     1    1.3361E+01  2.3005E-01   1.3131E+01  0.000E+00  0.000E+00  0.000E+00  1.04356E+03  8.341E-01  1.200E+01  6.000E-02  1.278E+00
   1   10    7     6     2    1.3131E+01  2.2952E-01   1.2901E+01  0.000E+00  0.000E+00  0.000E+00  1.03901E+03  8.254E-01  1.200E+01  6.000E-02  1.275E+00
   1   11    7     6     3    1.2901E+01  2.2900E-01   1.2672E+01  0.000E+00  0.000E+00  0.000E+00  1.03445E+03  8.166E-01  1.200E+01  6.000E-02  1.272E+00
   1   12    7     6     4    1.2672E+01  2.2847E-01   1.2444E+01  0.000E+00  0.000E+00  0.000E+00  1.02990E+03  8.078E-01  1.200E+01  6.000E-02  1.269E+00
   1   13    7     6     5    1.2444E+01 -6.9433E-03   1.2450E+01  0.000E+00  0.000E+00  0.000E+00  1.02671E+03  8.035E-01  1.200E+01  2.400E-01 -9.644E-03
   1   14    9     7     1    1.5000E+02  1.3751E+00   1.4862E+02  0.000E+00  0.000E+00  0.000E+00  1.03987E+03  2.288E+00  5.529E+01  5.593E-01  8.195E-01
   1   13    8     7     2    1.4862E+02  1.9451E+00   1.4668E+02  0.000E+00  0.000E+00  0.000E+00  1.03478E+03  2.279E+00  5.525E+01  6.147E-01  1.055E+00
   1   13    7     7     3    1.4668E+02  1.6456E+00   1.4503E+02  0.000E+00  0.000E+00  0.000E+00  1.02969E+03  2.269E+00  5.521E+01  5.584E-01  9.823E-01
   1   13    6     8     1    1.5748E+02  1.0260E+00   1.5646E+02  0.000E+00  0.000E+00  0.000E+00  1.02474E+03  2.865E+00  4.155E+01  4.234E-01  8.078E-01
   1   13    5     8     2    1.5646E+02  2.8385E-01   1.5617E+02  0.000E+00  0.000E+00  0.000E+00  1.01849E+03  2.861E+00  4.148E+01  4.227E-01  2.238E-01
   1   13    4     8     3    1.5617E+02 -2.0488E+00   1.5822E+02  0.000E+00  0.000E+00  0.000E+00  1.01224E+03  2.867E+00  4.157E+01  4.236E+00 -1.612E-01
   1   13    3     8     4    1.5822E+02 -3.4554E+00   1.6168E+02  0.000E+00  0.000E+00  0.000E+00  1.00601E+03  2.886E+00  4.184E+01  4.264E+00 -2.701E-01
   1   13    2     8     5    1.6168E+02 -2.5310E+00   1.6421E+02  0.000E+00  0.000E+00  0.000E+00  9.99781E+02  2.906E+00  4.213E+01  4.293E+00 -1.965E-01
   1   13    1     8     6    1.6421E+02 -1.9671E+00   1.6618E+02  0.000E+00  0.000E+00  0.000E+00  9.94796E+02  2.921E+00  4.235E+01  2.589E+00 -2.532E-01
   1    8    6     9     1    0.0000E+00  0.0000E+00   0.0000E+00  0.000E+00  0.000E+00  0.000E+00  1.07875E+03  0.000E+00  4.000E+00  0.000E+00  1.000E+00
   1    8    5     9     2    0.0000E+00  0.0000E+00   0.0000E+00  0.000E+00  0.000E+00  0.000E+00  1.07825E+03  0.000E+00  4.000E+00  0.000E+00  1.000E+00





UNSATURATED ZONE PACKAGE VOLUMETRIC BUDGET FOR  TIME STEP    30 STRESS PERIOD   25
  ------------------------------------------------------------------------------



     CUMULATIVE VOLUMES      L**3       RATES FOR THIS TIME STEP      L**3/T
     ------------------                 ------------------------

           IN:                                      IN:
           ---                                      ---
        INFILTRATION =  1077311451.7537          INFILTRATION =           4.4075

          OUT:                                     OUT:
          ----                                     ----
              UZF ET =   997714215.2704                UZF ET =           0.7250
        UZF RECHARGE =      175481.8973          UZF RECHARGE =       0.0000E+00

            IN - OUT =    79421754.5860              IN - OUT =           3.6825

          STORAGE:                                 STORAGE:
          --------                                 --------
      STORAGE CHANGE =    79421739.7486        STORAGE CHANGE =           3.6825

 PERCENT DISCREPANCY IS DIFFERENCE BETWEEN IN-OUT MINUS CHANGE IN STORAGE
 DIVIDED BY THE AVERAGE OF IN AND OUT TIMES 100

 PERCENT DISCREPANCY =           0.00     PERCENT DISCREPANCY =           0.00






1
  VOLUMETRIC BUDGET FOR AGRICULTURAL FIELDS AT  END OF TIME STEP   30, STRESS PERIOD  25
  ------------------------------------------------------------------------------

     CUMULATIVE VOLUMES      L**3       RATES FOR THIS TIME STEP      L**3/T
     ------------------                 ------------------------

           IN:                                      IN:
           ---                                      ---
               AG WELLS  =   419684928.0000                 AG WELLS  =           0.0000
      DIVERSION SEGMENTS =   379344352.0000        DIVERSION SEGMENTS =           0.0000
           GW IRRIGATION =           0.0000             GW IRRIGATION =           0.0000
           SW IRRIGATION =           0.0000             SW IRRIGATION =           0.0000
        SYSTEM LOSSES GW =           0.0000          SYSTEM LOSSES GW =           0.0000
        SYSTEM LOSSES SW =           0.0000          SYSTEM LOSSES SW =           0.0000

                TOTAL IN =   799029248.0000                  TOTAL IN =           0.0000

          OUT:                                     OUT:
          ----                                     ----
               AG WELLS  =           0.0000                 AG WELLS  =           0.0000
      DIVERSION SEGMENTS =           0.0000        DIVERSION SEGMENTS =           0.0000
           GW IRRIGATION =   419684928.0000             GW IRRIGATION =           0.0000
           SW IRRIGATION =   379352160.0000             SW IRRIGATION =           0.0000
        SYSTEM LOSSES GW =           0.0000          SYSTEM LOSSES GW =           0.0000
        SYSTEM LOSSES SW =           0.0000          SYSTEM LOSSES SW =           0.0000

               TOTAL OUT =   799037056.0000                 TOTAL OUT =           0.0000

                IN - OUT =       -7808.0000                  IN - OUT =           0.0000

     PERCENT DISCREPANCY =          -0.00         PERCENT DISCREPANCY =           0.00



1
  VOLUMETRIC BUDGET FOR ENTIRE MODEL AT END OF TIME STEP   30, STRESS PERIOD  25
  ------------------------------------------------------------------------------

     CUMULATIVE VOLUMES      L**3       RATES FOR THIS TIME STEP      L**3/T
     ------------------                 ------------------------

           IN:                                      IN:
           ---                                      ---
             STORAGE     =   600098432.0000               STORAGE     =           4.6984
       CONSTANT HEAD     =           0.0000         CONSTANT HEAD     =           0.0000
     HEAD DEP BOUNDS     =    18208118.0000       HEAD DEP BOUNDS     =           0.2884
      STREAM LEAKAGE     =   738460544.0000        STREAM LEAKAGE     =          11.3033
        UZF RECHARGE     =      175481.8594          UZF RECHARGE     =           0.0000
               GW ET     =           0.0000                 GW ET     =           0.0000
     SURFACE LEAKAGE     =           0.0000       SURFACE LEAKAGE     =           0.0000
           AG WELLS      =           0.0000             AG WELLS      =           0.0000

                TOTAL IN =  1356942592.0000                  TOTAL IN =          16.2902

          OUT:                                     OUT:
          ----                                     ----
             STORAGE     =   270966976.0000               STORAGE     =           5.9938
       CONSTANT HEAD     =           0.0000         CONSTANT HEAD     =           0.0000
     HEAD DEP BOUNDS     =    18193996.0000       HEAD DEP BOUNDS     =           0.2871
      STREAM LEAKAGE     =   648058048.0000        STREAM LEAKAGE     =          10.0092
        UZF RECHARGE     =           0.0000          UZF RECHARGE     =           0.0000
               GW ET     =           0.0000                 GW ET     =           0.0000
     SURFACE LEAKAGE     =           0.0000       SURFACE LEAKAGE     =           0.0000
           AG WELLS      =   419684928.0000             AG WELLS      =           0.0000

               TOTAL OUT =  1356903936.0000                 TOTAL OUT =          16.2901

                IN - OUT =       38656.0000                  IN - OUT =       1.1444E-05

     PERCENT DISCREPANCY =           0.00         PERCENT DISCREPANCY =           0.00






         TIME SUMMARY AT END OF TIME STEP   30 IN STRESS PERIOD   25
                    SECONDS     MINUTES      HOURS       DAYS        YEARS
                    -----------------------------------------------------------
   TIME STEP LENGTH  87667.      1461.1      24.352      1.0147     2.77799E-03
 STRESS PERIOD TIME 2.63000E+06  43833.      730.56      30.440     8.33397E-02
         TOTAL TIME 6.32067E+07 1.05345E+06  17557.      731.56      2.0029    
1
1
                            STRESS PERIOD NO.   26, LENGTH =   2630000.    
                            -----------------------------------------------

                              NUMBER OF TIME STEPS =    30

                               MULTIPLIER FOR DELT =     1.000

                            INITIAL TIME STEP SIZE =   87666.66    

 REUSING NON-PARAMETER GHB CELLS FROM LAST STRESS PERIOD

      2 GHB CELLS

 REUSING STREAM SEGMENT DATA FROM LAST STRESS PERIOD



            AREAL INFILTRATION RATE
 READING ON UNIT   19 WITH FORMAT: (10F4.0)            

            1           2           3           4           5           6           7           8           9          10
 ........................................................................................................................
   1   1.2000E-09   0.000       0.000       0.000       0.000       0.000       0.000       0.000       0.000       0.000    
   2   2.1000E-09  2.0000E-09  8.0000E-10  8.5000E-09   0.000       0.000       0.000       0.000       0.000       0.000    
   3   5.0000E-10  1.1000E-09  8.8000E-09  5.5000E-09   0.000       0.000       0.000       0.000       0.000       0.000    
   4   8.5000E-09  1.1000E-09  1.1000E-09  1.1000E-09  2.0000E-09   0.000       0.000       0.000       0.000       0.000    
   5   8.5000E-09  1.1000E-09  1.1000E-09  1.1000E-09  1.1000E-09   0.000       0.000       0.000       0.000       0.000    
   6   8.5000E-09  5.2000E-09  2.1000E-09  1.1000E-09  1.5000E-09   0.000       0.000       0.000       0.000       0.000    
   7   8.5000E-09  5.2000E-09  2.1000E-09  1.2000E-09  2.0000E-09   0.000       0.000       0.000       0.000       0.000    
   8   5.0000E-10  5.2000E-09  2.1000E-09  1.2000E-09  5.0000E-09   0.000       0.000       0.000       0.000       0.000    
   9   5.0000E-10  5.2000E-09  2.1000E-09  1.2000E-09  5.0000E-09   0.000       0.000       0.000       0.000       0.000    
  10   5.0000E-10  5.2000E-09  2.1000E-09  1.2000E-09  5.8000E-09   0.000       0.000       0.000       0.000       0.000    
  11   1.0000E-10  1.1000E-09  1.1000E-09  1.2000E-09  5.0000E-09   0.000       0.000       0.000       0.000       0.000    
  12   1.1000E-09  1.1000E-09  1.1000E-09  1.1000E-09  2.0000E-09   0.000       0.000       0.000       0.000       0.000    
  13   1.1000E-09  2.2000E-09  2.2000E-09  2.1000E-09  1.0000E-09   0.000       0.000       0.000       0.000       0.000    
  14   2.0000E-10  5.5000E-09  5.5000E-09  5.2000E-09  1.0000E-09   0.000       0.000       0.000       0.000       0.000    
  15    0.000      8.8000E-09  8.8000E-09   0.000       0.000       0.000       0.000       0.000       0.000       0.000    

                  ET RATE =  5.000000E-10

 USING ET EXTINCTION DEPTH FROM PREVIOUS STRESS PERIOD. CURRENT PERIOD IS:      26

 USING EXTINCTION WATER CONTENT FROM PREVIOUS STRESS PERIOD. CURRENT PERIOD IS:      26

 USING AIR ENTRY PRESSURE FROM PREVIOUS STRESS PERIOD. CURRENT PERIOD IS:      26

 USING ROOT PRESSURE HEAD FROM PREVIOUS STRESS PERIOD. CURRENT PERIOD IS:      26

 USING ROOT ACTIVITY FROM PREVIOUS STRESS PERIOD. CURRENT PERIOD IS:      26

 PROCESSING AG STRESS PERIOD DATA

 READING AG STRESS PERIOD DATA

 READING IRRIGATION SEGMENT

 READING IRRIGATION WELL

 READING SUPPLEMENTAL WELL

 END PROCESSING AG STRESS PERIOD DATA OPTIONS
 
 SOLVING FOR HEAD 
                                                   Max.-Head-Change                         Max.-Flux-Residual
  Residual-Control   Outer-Iter.   Inner-Iter.     Column Row Layer    Maximum-Head-Change  Column Row Layer    Maximum-Flux-Residual          L2-NORM 
          0                 1           2             4    7     1       0.1530308786E-01       4    7    1         0.8041711103E+00      0.1828511841E+01
          0                 2           2             4    7     1      -0.1488578137E-02       4    7    1        -0.8041744693E-01      0.1828496124E+00
          0                 3           1             4    7     1       0.1013666063E-03       4    7    1         0.5629220534E-02      0.1279932889E-01
          0                 4           1             4    7     1      -0.4033474756E-05       4    7    1        -0.2302354592E-03      0.5235294126E-03

    ------------------------------------------------
       NWT REQUIRED            4 OUTER ITERATIONS 
       AND A TOTAL OF          6 INNER ITERATIONS.
    ------------------------------------------------

 NO OUTPUT CONTROL FOR STRESS PERIOD   26   TIME STEP    1
 
 SOLVING FOR HEAD 
                                                   Max.-Head-Change                         Max.-Flux-Residual
  Residual-Control   Outer-Iter.   Inner-Iter.     Column Row Layer    Maximum-Head-Change  Column Row Layer    Maximum-Flux-Residual          L2-NORM 
          0                 1           2             4    7     1       0.1513183640E-01       4    7    1         0.7951252771E+00      0.1809699688E+01
          0                 2           2             4    7     1      -0.1471919921E-02       4    7    1        -0.7951285559E-01      0.1809701576E+00
          0                 3           1             4    7     1       0.1002322450E-03       4    7    1         0.5565899200E-02      0.1266789969E-01
          0                 4           1             4    7     1      -0.3988337368E-05       4    7    1        -0.2276456094E-03      0.5181152787E-03

    ------------------------------------------------
       NWT REQUIRED            4 OUTER ITERATIONS 
       AND A TOTAL OF          6 INNER ITERATIONS.
    ------------------------------------------------

 NO OUTPUT CONTROL FOR STRESS PERIOD   26   TIME STEP    2
 
 SOLVING FOR HEAD 
                                                   Max.-Head-Change                         Max.-Flux-Residual
  Residual-Control   Outer-Iter.   Inner-Iter.     Column Row Layer    Maximum-Head-Change  Column Row Layer    Maximum-Flux-Residual          L2-NORM 
          0                 1           2             4    7     1       0.1496331928E-01       4    7    1         0.7862240798E+00      0.1793304593E+01
          0                 2           2             4    7     1      -0.1455527685E-02       4    7    1        -0.7862272805E-01      0.1793306518E+00
          0                 3           1             4    7     1       0.9911599570E-04       4    7    1         0.5503590328E-02      0.1255317275E-01

    ------------------------------------------------
       NWT REQUIRED            3 OUTER ITERATIONS 
       AND A TOTAL OF          5 INNER ITERATIONS.
    ------------------------------------------------

 NO OUTPUT CONTROL FOR STRESS PERIOD   26   TIME STEP    3
 
 SOLVING FOR HEAD 
                                                   Max.-Head-Change                         Max.-Flux-Residual
  Residual-Control   Outer-Iter.   Inner-Iter.     Column Row Layer    Maximum-Head-Change  Column Row Layer    Maximum-Flux-Residual          L2-NORM 
          0                 1           2             4    7     1       0.1479755231E-01       4    7    1         0.7774689730E+00      0.1777251312E+01
          0                 2           2             4    7     1      -0.1439402967E-02       4    7    1        -0.7774720979E-01      0.1777253318E+00
          0                 3           1             4    7     1       0.9801796319E-04       4    7    1         0.5442304087E-02      0.1244077566E-01

    ------------------------------------------------
       NWT REQUIRED            3 OUTER ITERATIONS 
       AND A TOTAL OF          5 INNER ITERATIONS.
    ------------------------------------------------

 NO OUTPUT CONTROL FOR STRESS PERIOD   26   TIME STEP    4
 
 SOLVING FOR HEAD 
                                                   Max.-Head-Change                         Max.-Flux-Residual
  Residual-Control   Outer-Iter.   Inner-Iter.     Column Row Layer    Maximum-Head-Change  Column Row Layer    Maximum-Flux-Residual          L2-NORM 
          0                 1           2             4    7     1       0.1463453499E-01       4    7    1         0.7688595159E+00      0.1761444922E+01
          0                 2           2             4    7     1      -0.1423545717E-02       4    7    1        -0.7688625670E-01      0.1761443303E+00
          0                 3           1             4    7     1       0.9693814399E-04       4    7    1         0.5382037400E-02      0.1233010055E-01

    ------------------------------------------------
       NWT REQUIRED            3 OUTER ITERATIONS 
       AND A TOTAL OF          5 INNER ITERATIONS.
    ------------------------------------------------

 NO OUTPUT CONTROL FOR STRESS PERIOD   26   TIME STEP    5
 
 SOLVING FOR HEAD 
                                                   Max.-Head-Change                         Max.-Flux-Residual
  Residual-Control   Outer-Iter.   Inner-Iter.     Column Row Layer    Maximum-Head-Change  Column Row Layer    Maximum-Flux-Residual          L2-NORM 
          0                 1           2             4    7     1       0.1447406968E-01       4    7    1         0.7603852923E+00      0.1745875399E+01
          0                 2           2             4    7     1      -0.1407936712E-02       4    7    1        -0.7603882714E-01      0.1745877431E+00
          0                 3           1             4    7     1       0.9587522989E-04       4    7    1         0.5322717384E-02      0.1222114028E-01

    ------------------------------------------------
       NWT REQUIRED            3 OUTER ITERATIONS 
       AND A TOTAL OF          5 INNER ITERATIONS.
    ------------------------------------------------

 NO OUTPUT CONTROL FOR STRESS PERIOD   26   TIME STEP    6
 
 SOLVING FOR HEAD 
                                                   Max.-Head-Change                         Max.-Flux-Residual
  Residual-Control   Outer-Iter.   Inner-Iter.     Column Row Layer    Maximum-Head-Change  Column Row Layer    Maximum-Flux-Residual          L2-NORM 
          0                 1           2             4    7     1       0.1431610142E-01       4    7    1         0.7520433865E+00      0.1730533327E+01
          0                 2           2             4    7     1      -0.1392570605E-02       4    7    1        -0.7520462957E-01      0.1730535353E+00
          0                 3           1             4    7     1       0.9482885571E-04       4    7    1         0.5264323596E-02      0.1211374428E-01

    ------------------------------------------------
       NWT REQUIRED            3 OUTER ITERATIONS 
       AND A TOTAL OF          5 INNER ITERATIONS.
    ------------------------------------------------

 NO OUTPUT CONTROL FOR STRESS PERIOD   26   TIME STEP    7
 
 SOLVING FOR HEAD 
                                                   Max.-Head-Change                         Max.-Flux-Residual
  Residual-Control   Outer-Iter.   Inner-Iter.     Column Row Layer    Maximum-Head-Change  Column Row Layer    Maximum-Flux-Residual          L2-NORM 
          0                 1           2             4    7     1       0.1416084718E-01       4    7    1         0.7438456099E+00      0.1715417041E+01
          0                 2           2             4    7     1      -0.1377513158E-02       4    7    1        -0.7438484512E-01      0.1716039674E+00
          0                 3           1             4    7     1       0.9380350071E-04       4    7    1         0.5206938729E-02      0.1201227695E-01

    ------------------------------------------------
       NWT REQUIRED            3 OUTER ITERATIONS 
       AND A TOTAL OF          5 INNER ITERATIONS.
    ------------------------------------------------

 NO OUTPUT CONTROL FOR STRESS PERIOD   26   TIME STEP    8
 
 SOLVING FOR HEAD 
                                                   Max.-Head-Change                         Max.-Flux-Residual
  Residual-Control   Outer-Iter.   Inner-Iter.     Column Row Layer    Maximum-Head-Change  Column Row Layer    Maximum-Flux-Residual          L2-NORM 
          0                 1           2             4    7     1       0.1400782867E-01       4    7    1         0.7357715149E+00      0.1700469094E+01
          0                 2           2             4    7     1      -0.1362583884E-02       4    7    1        -0.7357742921E-01      0.1700470465E+00
          0                 3           1             4    7     1       0.9278687292E-04       4    7    1         0.5150419629E-02      0.1190328870E-01

    ------------------------------------------------
       NWT REQUIRED            3 OUTER ITERATIONS 
       AND A TOTAL OF          5 INNER ITERATIONS.
    ------------------------------------------------

 NO OUTPUT CONTROL FOR STRESS PERIOD   26   TIME STEP    9
 
 SOLVING FOR HEAD 
                                                   Max.-Head-Change                         Max.-Flux-Residual
  Residual-Control   Outer-Iter.   Inner-Iter.     Column Row Layer    Maximum-Head-Change  Column Row Layer    Maximum-Flux-Residual          L2-NORM 
          0                 1           2             4    7     1       0.1385713870E-01       4    7    1         0.7278180833E+00      0.1685720856E+01
          0                 2           2             4    7     1      -0.1347925765E-02       4    7    1        -0.7278207967E-01      0.1685722624E+00
          0                 3           1             4    7     1       0.9178871037E-04       4    7    1         0.5094745214E-02      0.1180000946E-01

    ------------------------------------------------
       NWT REQUIRED            3 OUTER ITERATIONS 
       AND A TOTAL OF          5 INNER ITERATIONS.
    ------------------------------------------------

 NO OUTPUT CONTROL FOR STRESS PERIOD   26   TIME STEP   10
 
 SOLVING FOR HEAD 
                                                   Max.-Head-Change                         Max.-Flux-Residual
  Residual-Control   Outer-Iter.   Inner-Iter.     Column Row Layer    Maximum-Head-Change  Column Row Layer    Maximum-Flux-Residual          L2-NORM 
          0                 1           2             4    7     1       0.1370896129E-01       4    7    1         0.7199976737E+00      0.1671193733E+01
          0                 2           2             4    7     1      -0.1333512050E-02       4    7    1        -0.7200003251E-01      0.1671195280E+00
          0                 3           1             4    7     1       0.9080719082E-04       4    7    1         0.5040001931E-02      0.1169836536E-01

    ------------------------------------------------
       NWT REQUIRED            3 OUTER ITERATIONS 
       AND A TOTAL OF          5 INNER ITERATIONS.
    ------------------------------------------------

 NO OUTPUT CONTROL FOR STRESS PERIOD   26   TIME STEP   11
 
 SOLVING FOR HEAD 
                                                   Max.-Head-Change                         Max.-Flux-Residual
  Residual-Control   Outer-Iter.   Inner-Iter.     Column Row Layer    Maximum-Head-Change  Column Row Layer    Maximum-Flux-Residual          L2-NORM 
          0                 1           2             4    7     1       0.1356297453E-01       4    7    1         0.7122928724E+00      0.1656876803E+01
          0                 2           2             4    7     1      -0.1319311429E-02       4    7    1        -0.7122954635E-01      0.1656878140E+00
          0                 3           1             4    7     1       0.8984018181E-04       4    7    1         0.4986067940E-02      0.1159813597E-01

    ------------------------------------------------
       NWT REQUIRED            3 OUTER ITERATIONS 
       AND A TOTAL OF          5 INNER ITERATIONS.
    ------------------------------------------------

 NO OUTPUT CONTROL FOR STRESS PERIOD   26   TIME STEP   12
 
 SOLVING FOR HEAD 
                                                   Max.-Head-Change                         Max.-Flux-Residual
  Residual-Control   Outer-Iter.   Inner-Iter.     Column Row Layer    Maximum-Head-Change  Column Row Layer    Maximum-Flux-Residual          L2-NORM 
          0                 1           2             4    7     1       0.1341926924E-01       4    7    1         0.7047089846E+00      0.1642763586E+01
          0                 2           2             4    7     1      -0.1305332736E-02       4    7    1        -0.7047115169E-01      0.1642764666E+00
          0                 3           1             4    7     1       0.8888828570E-04       4    7    1         0.4932980353E-02      0.1149934784E-01

    ------------------------------------------------
       NWT REQUIRED            3 OUTER ITERATIONS 
       AND A TOTAL OF          5 INNER ITERATIONS.
    ------------------------------------------------

 NO OUTPUT CONTROL FOR STRESS PERIOD   26   TIME STEP   13
 
 SOLVING FOR HEAD 
                                                   Max.-Head-Change                         Max.-Flux-Residual
  Residual-Control   Outer-Iter.   Inner-Iter.     Column Row Layer    Maximum-Head-Change  Column Row Layer    Maximum-Flux-Residual          L2-NORM 
          0                 1           2             4    7     1       0.1327780474E-01       4    7    1         0.6972433875E+00      0.1628859683E+01
          0                 2           2             4    7     1      -0.1291572012E-02       4    7    1        -0.6972458623E-01      0.1628860571E+00
          0                 3           1             4    7     1       0.8795123255E-04       4    7    1         0.4880720816E-02      0.1140201976E-01

    ------------------------------------------------
       NWT REQUIRED            3 OUTER ITERATIONS 
       AND A TOTAL OF          5 INNER ITERATIONS.
    ------------------------------------------------

 NO OUTPUT CONTROL FOR STRESS PERIOD   26   TIME STEP   14
 
 SOLVING FOR HEAD 
                                                   Max.-Head-Change                         Max.-Flux-Residual
  Residual-Control   Outer-Iter.   Inner-Iter.     Column Row Layer    Maximum-Head-Change  Column Row Layer    Maximum-Flux-Residual          L2-NORM 
          0                 1           2             4    7     1       0.1313853288E-01       4    7    1         0.6898939713E+00      0.1615151439E+01
          0                 2           2             4    7     1      -0.1278024575E-02       4    7    1        -0.6898963904E-01      0.1615152130E+00
          0                 3           1             4    7     1       0.8702870286E-04       4    7    1         0.4829274537E-02      0.1130605934E-01

    ------------------------------------------------
       NWT REQUIRED            3 OUTER ITERATIONS 
       AND A TOTAL OF          5 INNER ITERATIONS.
    ------------------------------------------------

 NO OUTPUT CONTROL FOR STRESS PERIOD   26   TIME STEP   15
 
 SOLVING FOR HEAD 
                                                   Max.-Head-Change                         Max.-Flux-Residual
  Residual-Control   Outer-Iter.   Inner-Iter.     Column Row Layer    Maximum-Head-Change  Column Row Layer    Maximum-Flux-Residual          L2-NORM 
          0                 1           2             4    7     1       0.1300140937E-01       4    7    1         0.6826582403E+00      0.1601636181E+01
          0                 2           2             4    7     1      -0.1264686115E-02       4    7    1        -0.6826606046E-01      0.1601636554E+00
          0                 3           1             4    7     1       0.8612040386E-04       4    7    1         0.4778624050E-02      0.1121144893E-01

    ------------------------------------------------
       NWT REQUIRED            3 OUTER ITERATIONS 
       AND A TOTAL OF          5 INNER ITERATIONS.
    ------------------------------------------------

 NO OUTPUT CONTROL FOR STRESS PERIOD   26   TIME STEP   16
 
 SOLVING FOR HEAD 
                                                   Max.-Head-Change                         Max.-Flux-Residual
  Residual-Control   Outer-Iter.   Inner-Iter.     Column Row Layer    Maximum-Head-Change  Column Row Layer    Maximum-Flux-Residual          L2-NORM 
          0                 1           2             4    7     1       0.1286625561E-01       4    7    1         0.6755265646E+00      0.1588311189E+01
          0                 2           2             4    7     1      -0.1251539261E-02       4    7    1        -0.6755288758E-01      0.1588311297E+00
          0                 3           1             4    7     1       0.8522515254E-04       4    7    1         0.4728701979E-02      0.1111817319E-01

    ------------------------------------------------
       NWT REQUIRED            3 OUTER ITERATIONS 
       AND A TOTAL OF          5 INNER ITERATIONS.
    ------------------------------------------------

 NO OUTPUT CONTROL FOR STRESS PERIOD   26   TIME STEP   17
 
 SOLVING FOR HEAD 
                                                   Max.-Head-Change                         Max.-Flux-Residual
  Residual-Control   Outer-Iter.   Inner-Iter.     Column Row Layer    Maximum-Head-Change  Column Row Layer    Maximum-Flux-Residual          L2-NORM 
          0                 1           2             4    7     1       0.1273330625E-01       4    7    1         0.6685116830E+00      0.1575178099E+01
          0                 2           2             4    7     1      -0.1238606837E-02       4    7    1        -0.6685139425E-01      0.1575178030E+00
          0                 3           1             4    7     1       0.8434450348E-04       4    7    1         0.4679597485E-02      0.1102623919E-01

    ------------------------------------------------
       NWT REQUIRED            3 OUTER ITERATIONS 
       AND A TOTAL OF          5 INNER ITERATIONS.
    ------------------------------------------------

 NO OUTPUT CONTROL FOR STRESS PERIOD   26   TIME STEP   18
 
 SOLVING FOR HEAD 
                                                   Max.-Head-Change                         Max.-Flux-Residual
  Residual-Control   Outer-Iter.   Inner-Iter.     Column Row Layer    Maximum-Head-Change  Column Row Layer    Maximum-Flux-Residual          L2-NORM 
          0                 1           2             4    7     1       0.1260237840E-01       4    7    1         0.6616037632E+00      0.1562224535E+01
          0                 2           2             4    7     1      -0.1225871052E-02       4    7    1        -0.6616059720E-01      0.1562224082E+00
          0                 3           1             4    7     1       0.8347724433E-04       4    7    1         0.4631241718E-02      0.1093555479E-01

    ------------------------------------------------
       NWT REQUIRED            3 OUTER ITERATIONS 
       AND A TOTAL OF          5 INNER ITERATIONS.
    ------------------------------------------------

 NO OUTPUT CONTROL FOR STRESS PERIOD   26   TIME STEP   19
 
 SOLVING FOR HEAD 
                                                   Max.-Head-Change                         Max.-Flux-Residual
  Residual-Control   Outer-Iter.   Inner-Iter.     Column Row Layer    Maximum-Head-Change  Column Row Layer    Maximum-Flux-Residual          L2-NORM 
          0                 1           2             4    7     1       0.1247343155E-01       4    7    1         0.6548006550E+00      0.1549459800E+01
          0                 2           2             4    7     1      -0.1213327967E-02       4    7    1        -0.6548028146E-01      0.1549459141E+00
          0                 3           1             4    7     1       0.8262310718E-04       4    7    1         0.4583619631E-02      0.1084619425E-01

    ------------------------------------------------
       NWT REQUIRED            3 OUTER ITERATIONS 
       AND A TOTAL OF          5 INNER ITERATIONS.
    ------------------------------------------------

 NO OUTPUT CONTROL FOR STRESS PERIOD   26   TIME STEP   20
 
 SOLVING FOR HEAD 
                                                   Max.-Head-Change                         Max.-Flux-Residual
  Residual-Control   Outer-Iter.   Inner-Iter.     Column Row Layer    Maximum-Head-Change  Column Row Layer    Maximum-Flux-Residual          L2-NORM 
          0                 1           2             4    7     1       0.1234629290E-01       4    7    1         0.6480929250E+00      0.1536863852E+01
          0                 2           2             4    7     1      -0.1200960771E-02       4    7    1        -0.6480950366E-01      0.1536862958E+00
          0                 3           1             4    7     1       0.8178094783E-04       4    7    1         0.4536665219E-02      0.1075802380E-01

    ------------------------------------------------
       NWT REQUIRED            3 OUTER ITERATIONS 
       AND A TOTAL OF          5 INNER ITERATIONS.
    ------------------------------------------------

 NO OUTPUT CONTROL FOR STRESS PERIOD   26   TIME STEP   21
 
 SOLVING FOR HEAD 
                                                   Max.-Head-Change                         Max.-Flux-Residual
  Residual-Control   Outer-Iter.   Inner-Iter.     Column Row Layer    Maximum-Head-Change  Column Row Layer    Maximum-Flux-Residual          L2-NORM 
          0                 1           2             4    7     1       0.1222119893E-01       4    7    1         0.6414936145E+00      0.1524449244E+01
          0                 2           2             4    7     1      -0.1188792470E-02       4    7    1        -0.6414956794E-01      0.1524448138E+00
          0                 3           1             4    7     1       0.8095233269E-04       4    7    1         0.4490469754E-02      0.1067111388E-01

    ------------------------------------------------
       NWT REQUIRED            3 OUTER ITERATIONS 
       AND A TOTAL OF          5 INNER ITERATIONS.
    ------------------------------------------------

 NO OUTPUT CONTROL FOR STRESS PERIOD   26   TIME STEP   22
 
 SOLVING FOR HEAD 
                                                   Max.-Head-Change                         Max.-Flux-Residual
  Residual-Control   Outer-Iter.   Inner-Iter.     Column Row Layer    Maximum-Head-Change  Column Row Layer    Maximum-Flux-Residual          L2-NORM 
          0                 1           2             4    7     1       0.1209797162E-01       4    7    1         0.6349929837E+00      0.1512199578E+01
          0                 2           2             4    7     1      -0.1177042695E-02       4    7    1        -0.6353014767E-01      0.1512293062E+00
          0                 3           1             4    7     1       0.8015221373E-04       4    7    1         0.4447110138E-02      0.1058602596E-01

    ------------------------------------------------
       NWT REQUIRED            3 OUTER ITERATIONS 
       AND A TOTAL OF          5 INNER ITERATIONS.
    ------------------------------------------------

 NO OUTPUT CONTROL FOR STRESS PERIOD   26   TIME STEP   23
 
 SOLVING FOR HEAD 
                                                   Max.-Head-Change                         Max.-Flux-Residual
  Residual-Control   Outer-Iter.   Inner-Iter.     Column Row Layer    Maximum-Head-Change  Column Row Layer    Maximum-Flux-Residual          L2-NORM 
          0                 1           2             4    7     1       0.1197341388E-01       4    7    1         0.6285837883E+00      0.1500115646E+01
          0                 2           2             4    7     1      -0.1164689898E-02       4    7    1        -0.6285859659E-01      0.1500114095E+00
          0                 3           1             4    7     1       0.7931103515E-04       4    7    1         0.4400101616E-02      0.1050077110E-01

    ------------------------------------------------
       NWT REQUIRED            3 OUTER ITERATIONS 
       AND A TOTAL OF          5 INNER ITERATIONS.
    ------------------------------------------------

 NO OUTPUT CONTROL FOR STRESS PERIOD   26   TIME STEP   24
 
 SOLVING FOR HEAD 
                                                   Max.-Head-Change                         Max.-Flux-Residual
  Residual-Control   Outer-Iter.   Inner-Iter.     Column Row Layer    Maximum-Head-Change  Column Row Layer    Maximum-Flux-Residual          L2-NORM 
          0                 1           2             4    7     1       0.1185099355E-01       4    7    1         0.6221162432E+00      0.1488148579E+01
          0                 2           2             4    7     1      -0.1152781658E-02       4    7    1        -0.6221183659E-01      0.1488146842E+00
          0                 3           1             4    7     1       0.7850012885E-04       4    7    1         0.4354828440E-02      0.1041700967E-01

    ------------------------------------------------
       NWT REQUIRED            3 OUTER ITERATIONS 
       AND A TOTAL OF          5 INNER ITERATIONS.
    ------------------------------------------------

 NO OUTPUT CONTROL FOR STRESS PERIOD   26   TIME STEP   25
 
 SOLVING FOR HEAD 
                                                   Max.-Head-Change                         Max.-Flux-Residual
  Residual-Control   Outer-Iter.   Inner-Iter.     Column Row Layer    Maximum-Head-Change  Column Row Layer    Maximum-Flux-Residual          L2-NORM 
          0                 1           2             4    7     1       0.1173068962E-01       4    7    1         0.6157615727E+00      0.1476348450E+01
          0                 2           2             4    7     1      -0.1141079287E-02       4    7    1        -0.6157636425E-01      0.1476346654E+00
          0                 3           1             4    7     1       0.7770324155E-04       4    7    1         0.4310345409E-02      0.1033440857E-01

    ------------------------------------------------
       NWT REQUIRED            3 OUTER ITERATIONS 
       AND A TOTAL OF          5 INNER ITERATIONS.
    ------------------------------------------------

 NO OUTPUT CONTROL FOR STRESS PERIOD   26   TIME STEP   26
 
 SOLVING FOR HEAD 
                                                   Max.-Head-Change                         Max.-Flux-Residual
  Residual-Control   Outer-Iter.   Inner-Iter.     Column Row Layer    Maximum-Head-Change  Column Row Layer    Maximum-Flux-Residual          L2-NORM 
          0                 1           2             4    7     1       0.1161217739E-01       4    7    1         0.6095019644E+00      0.1464707579E+01
          0                 2           2             4    7     1      -0.1129551203E-02       4    7    1        -0.6095039824E-01      0.1464705192E+00
          0                 3           1             4    7     1       0.7691822246E-04       4    7    1         0.4266527817E-02      0.1025290766E-01

    ------------------------------------------------
       NWT REQUIRED            3 OUTER ITERATIONS 
       AND A TOTAL OF          5 INNER ITERATIONS.
    ------------------------------------------------

 NO OUTPUT CONTROL FOR STRESS PERIOD   26   TIME STEP   27
 
 SOLVING FOR HEAD 
                                                   Max.-Head-Change                         Max.-Flux-Residual
  Residual-Control   Outer-Iter.   Inner-Iter.     Column Row Layer    Maximum-Head-Change  Column Row Layer    Maximum-Flux-Residual          L2-NORM 
          0                 1           2             4    7     1       0.1149568366E-01       4    7    1         0.6033499223E+00      0.1453224046E+01
          0                 2           2             4    7     1      -0.1118219466E-02       4    7    1        -0.6033518904E-01      0.1453221718E+00
          0                 3           1             4    7     1       0.7614657387E-04       4    7    1         0.4223463191E-02      0.1017251791E-01

    ------------------------------------------------
       NWT REQUIRED            3 OUTER ITERATIONS 
       AND A TOTAL OF          5 INNER ITERATIONS.
    ------------------------------------------------

 NO OUTPUT CONTROL FOR STRESS PERIOD   26   TIME STEP   28
 
 SOLVING FOR HEAD 
                                                   Max.-Head-Change                         Max.-Flux-Residual
  Residual-Control   Outer-Iter.   Inner-Iter.     Column Row Layer    Maximum-Head-Change  Column Row Layer    Maximum-Flux-Residual          L2-NORM 
          0                 1           2             4    7     1       0.1138115819E-01       4    7    1         0.5973025367E+00      0.1441902694E+01
          0                 2           2             4    7     1      -0.1107079189E-02       4    7    1        -0.5973044567E-01      0.1441900220E+00
          0                 3           1             4    7     1       0.7538796302E-04       4    7    1         0.4181131190E-02      0.1009326806E-01

    ------------------------------------------------
       NWT REQUIRED            3 OUTER ITERATIONS 
       AND A TOTAL OF          5 INNER ITERATIONS.
    ------------------------------------------------

 NO OUTPUT CONTROL FOR STRESS PERIOD   26   TIME STEP   29
 
 SOLVING FOR HEAD 
                                                   Max.-Head-Change                         Max.-Flux-Residual
  Residual-Control   Outer-Iter.   Inner-Iter.     Column Row Layer    Maximum-Head-Change  Column Row Layer    Maximum-Flux-Residual          L2-NORM 
          0                 1           2             4    7     1       0.1126827866E-01       4    7    1         0.5913425310E+00      0.1430726178E+01
          0                 2           2             4    7     1      -0.1096099020E-02       4    7    1        -0.5913444041E-01      0.1430723606E+00
          0                 3           1             4    7     1       0.7464025464E-04       4    7    1         0.4139410833E-02      0.1001503458E-01

    ------------------------------------------------
       NWT REQUIRED            3 OUTER ITERATIONS 
       AND A TOTAL OF          5 INNER ITERATIONS.
    ------------------------------------------------

 NO OUTPUT CONTROL FOR STRESS PERIOD   26   TIME STEP   30



 STREAM LISTING     PERIOD     26   STEP       30

 LAYER ROW COL. STREAM  RCH.  FLOW INTO     FLOW TO   FLOW OUT OF   OVRLND.     DIRECT     STREAM       STREAM     STREAM     STREAM   STREAMBED  STREAMBED
                SEG.NO.  NO.  STRM. RCH.    AQUIFER    STRM. RCH.    RUNOFF     PRECIP       ET          HEAD       DEPTH      WIDTH   CONDCTNC.   GRADIENT

   1    1    1     1     1    8.2501E+00  1.3178E-01   8.1183E+00  0.000E+00  0.000E+00  0.000E+00  1.09389E+03  8.424E-01  7.622E+00  3.430E-02  1.281E+00
   1    2    2     1     2    8.1183E+00  2.0241E-01   7.9159E+00  0.000E+00  0.000E+00  0.000E+00  1.08890E+03  8.367E-01  7.537E+00  5.276E-02  1.279E+00
   1    3    3     1     3    7.9159E+00  1.7099E-01   7.7449E+00  0.000E+00  0.000E+00  0.000E+00  1.08325E+03  8.302E-01  7.440E+00  4.464E-02  1.277E+00
   1    3    4     1     4    7.7449E+00  1.5612E-01   7.5888E+00  0.000E+00  0.000E+00  0.000E+00  1.07823E+03  8.244E-01  7.355E+00  4.082E-02  1.275E+00
   1    4    5     2     1    5.5888E+00  2.7178E-01   5.3170E+00  0.000E+00  0.000E+00  0.000E+00  1.07242E+03  4.843E-01  1.200E+01  7.800E-02  1.161E+00
   1    5    6     2     2    5.3170E+00  2.0828E-01   5.1088E+00  0.000E+00  0.000E+00  0.000E+00  1.06698E+03  4.714E-01  1.200E+01  6.000E-02  1.157E+00
   1    6    6     2     3    5.1088E+00  2.0760E-01   4.9012E+00  0.000E+00  0.000E+00  0.000E+00  1.06225E+03  4.600E-01  1.200E+01  6.000E-02  1.153E+00
   1    7    6     2     4    4.9012E+00  2.0691E-01   4.6943E+00  0.000E+00  0.000E+00  0.000E+00  1.05752E+03  4.485E-01  1.200E+01  6.000E-02  1.150E+00
   1    8    6     2     5    4.6943E+00  2.0621E-01   4.4880E+00  0.000E+00  0.000E+00  0.000E+00  1.05280E+03  4.368E-01  1.200E+01  6.000E-02  1.146E+00
   1    3    5     3     1    2.0000E+00  2.8252E-01   1.7175E+00  0.000E+00  0.000E+00  0.000E+00  1.07555E+03  1.909E+00  9.636E+00  7.227E-02  1.955E+00
   1    3    6     3     2    1.7175E+00  2.4905E-01   1.4684E+00  0.000E+00  0.000E+00  0.000E+00  1.07264E+03  1.727E+00  8.909E+00  6.682E-02  1.864E+00
   1    3    7     3     3    1.4684E+00  1.9718E-01   1.2712E+00  0.000E+00  0.000E+00  0.000E+00  1.06987E+03  1.555E+00  8.218E+00  5.547E-02  1.777E+00
   1    4    8     3     4    1.2712E+00  2.2567E-01   1.0456E+00  0.000E+00  0.000E+00  0.000E+00  1.06682E+03  1.364E+00  7.455E+00  6.709E-02  1.682E+00
   1    5    8     3     5    1.0456E+00  1.5790E-01   8.8768E-01  0.000E+00  0.000E+00  0.000E+00  1.06362E+03  1.164E+00  6.655E+00  4.991E-02  1.582E+00
   1    6    8     3     6    8.8768E-01  5.5980E-02   8.3170E-01  0.000E+00  0.000E+00  0.000E+00  1.06158E+03  1.036E+00  6.145E+00  1.844E-02  1.518E+00
   1    5   10     4     1    1.0000E+01  9.0919E-02   9.9091E+00  0.000E+00  0.000E+00  0.000E+00  1.07836E+03  6.368E-01  1.000E+01  2.500E-02  1.212E+00
   1    5    9     4     2    9.9091E+00  1.8158E-01   9.7275E+00  0.000E+00  0.000E+00  0.000E+00  1.07154E+03  6.315E-01  1.000E+01  5.000E-02  1.211E+00
   1    6    8     4     3    9.7275E+00  1.2689E-01   9.6006E+00  0.000E+00  0.000E+00  0.000E+00  1.06381E+03  6.256E-01  1.000E+01  3.500E-02  1.209E+00
   1    6    8     5     1    1.0432E+01  2.2686E-01   1.0205E+01  0.000E+00  0.000E+00  0.000E+00  1.05868E+03  6.790E-01  1.542E+01  6.166E-02  1.226E+00
   1    7    7     5     2    1.0205E+01  2.7894E-01   9.9265E+00  0.000E+00  0.000E+00  0.000E+00  1.05417E+03  6.732E-01  1.519E+01  7.594E-02  1.224E+00
   1    8    7     5     3    9.9265E+00  1.9221E-01   9.7343E+00  0.000E+00  0.000E+00  0.000E+00  1.04992E+03  6.676E-01  1.497E+01  5.241E-02  1.223E+00
   1    8    6     5     4    9.7343E+00  1.3577E-01   9.5985E+00  0.000E+00  0.000E+00  0.000E+00  1.04691E+03  6.637E-01  1.482E+01  3.706E-02  1.221E+00
   1    9    6     6     1    1.4087E+01  2.3167E-01   1.3855E+01  0.000E+00  0.000E+00  0.000E+00  1.04359E+03  8.612E-01  1.200E+01  6.000E-02  1.287E+00
   1   10    7     6     2    1.3855E+01  2.3116E-01   1.3624E+01  0.000E+00  0.000E+00  0.000E+00  1.03903E+03  8.526E-01  1.200E+01  6.000E-02  1.284E+00
   1   11    7     6     3    1.3624E+01  2.3064E-01   1.3393E+01  0.000E+00  0.000E+00  0.000E+00  1.03448E+03  8.440E-01  1.200E+01  6.000E-02  1.281E+00
   1   12    7     6     4    1.3393E+01  2.3012E-01   1.3163E+01  0.000E+00  0.000E+00  0.000E+00  1.02993E+03  8.353E-01  1.200E+01  6.000E-02  1.278E+00
   1   13    7     6     5    1.3163E+01  2.1571E-04   1.3163E+01  0.000E+00  0.000E+00  0.000E+00  1.02674E+03  8.310E-01  1.200E+01  2.400E-02  2.996E-03
   1   14    9     7     1    1.5000E+02  1.3757E+00   1.4862E+02  0.000E+00  0.000E+00  0.000E+00  1.03987E+03  2.288E+00  5.529E+01  5.593E-01  8.199E-01
   1   13    8     7     2    1.4862E+02  1.9478E+00   1.4668E+02  0.000E+00  0.000E+00  0.000E+00  1.03478E+03  2.279E+00  5.525E+01  6.147E-01  1.056E+00
   1   13    7     7     3    1.4668E+02  1.6514E+00   1.4503E+02  0.000E+00  0.000E+00  0.000E+00  1.02969E+03  2.269E+00  5.521E+01  5.584E-01  9.858E-01
   1   13    6     8     1    1.5819E+02  1.0369E+00   1.5715E+02  0.000E+00  0.000E+00  0.000E+00  1.02474E+03  2.870E+00  4.162E+01  4.241E-01  8.150E-01
   1   13    5     8     2    1.5715E+02  2.9338E-01   1.5686E+02  0.000E+00  0.000E+00  0.000E+00  1.01849E+03  2.865E+00  4.155E+01  4.234E-01  2.310E-01
   1   13    4     8     3    1.5686E+02 -2.0173E+00   1.5887E+02  0.000E+00  0.000E+00  0.000E+00  1.01225E+03  2.871E+00  4.163E+01  4.243E+00 -1.585E-01
   1   13    3     8     4    1.5887E+02 -3.4384E+00   1.6231E+02  0.000E+00  0.000E+00  0.000E+00  1.00601E+03  2.890E+00  4.190E+01  4.270E+00 -2.684E-01
   1   13    2     8     5    1.6231E+02 -2.5244E+00   1.6484E+02  0.000E+00  0.000E+00  0.000E+00  9.99785E+02  2.910E+00  4.219E+01  4.300E+00 -1.957E-01
   1   13    1     8     6    1.6484E+02 -1.9634E+00   1.6680E+02  0.000E+00  0.000E+00  0.000E+00  9.94800E+02  2.925E+00  4.241E+01  2.593E+00 -2.524E-01
   1    8    6     9     1    0.0000E+00  0.0000E+00   0.0000E+00  0.000E+00  0.000E+00  0.000E+00  1.07875E+03  0.000E+00  4.000E+00  0.000E+00  1.000E+00
   1    8    5     9     2    0.0000E+00  0.0000E+00   0.0000E+00  0.000E+00  0.000E+00  0.000E+00  1.07825E+03  0.000E+00  4.000E+00  0.000E+00  1.000E+00





UNSATURATED ZONE PACKAGE VOLUMETRIC BUDGET FOR  TIME STEP    30 STRESS PERIOD   26
  ------------------------------------------------------------------------------



     CUMULATIVE VOLUMES      L**3       RATES FOR THIS TIME STEP      L**3/T
     ------------------                 ------------------------

           IN:                                      IN:
           ---                                      ---
        INFILTRATION =  1088903176.3118          INFILTRATION =           4.4075

          OUT:                                     OUT:
          ----                                     ----
              UZF ET =   999620988.8384                UZF ET =           0.7250
        UZF RECHARGE =      175481.8973          UZF RECHARGE =       0.0000E+00

            IN - OUT =    89106705.5761              IN - OUT =           3.6825

          STORAGE:                                 STORAGE:
          --------                                 --------
      STORAGE CHANGE =    89106690.6712        STORAGE CHANGE =           3.6825

 PERCENT DISCREPANCY IS DIFFERENCE BETWEEN IN-OUT MINUS CHANGE IN STORAGE
 DIVIDED BY THE AVERAGE OF IN AND OUT TIMES 100

 PERCENT DISCREPANCY =           0.00     PERCENT DISCREPANCY =           0.00






1
  VOLUMETRIC BUDGET FOR AGRICULTURAL FIELDS AT  END OF TIME STEP   30, STRESS PERIOD  26
  ------------------------------------------------------------------------------

     CUMULATIVE VOLUMES      L**3       RATES FOR THIS TIME STEP      L**3/T
     ------------------                 ------------------------

           IN:                                      IN:
           ---                                      ---
               AG WELLS  =   419684928.0000                 AG WELLS  =           0.0000
      DIVERSION SEGMENTS =   379344352.0000        DIVERSION SEGMENTS =           0.0000
           GW IRRIGATION =           0.0000             GW IRRIGATION =           0.0000
           SW IRRIGATION =           0.0000             SW IRRIGATION =           0.0000
        SYSTEM LOSSES GW =           0.0000          SYSTEM LOSSES GW =           0.0000
        SYSTEM LOSSES SW =           0.0000          SYSTEM LOSSES SW =           0.0000

                TOTAL IN =   799029248.0000                  TOTAL IN =           0.0000

          OUT:                                     OUT:
          ----                                     ----
               AG WELLS  =           0.0000                 AG WELLS  =           0.0000
      DIVERSION SEGMENTS =           0.0000        DIVERSION SEGMENTS =           0.0000
           GW IRRIGATION =   419684928.0000             GW IRRIGATION =           0.0000
           SW IRRIGATION =   379352160.0000             SW IRRIGATION =           0.0000
        SYSTEM LOSSES GW =           0.0000          SYSTEM LOSSES GW =           0.0000
        SYSTEM LOSSES SW =           0.0000          SYSTEM LOSSES SW =           0.0000

               TOTAL OUT =   799037056.0000                 TOTAL OUT =           0.0000

                IN - OUT =       -7808.0000                  IN - OUT =           0.0000

     PERCENT DISCREPANCY =          -0.00         PERCENT DISCREPANCY =           0.00



1
  VOLUMETRIC BUDGET FOR ENTIRE MODEL AT END OF TIME STEP   30, STRESS PERIOD  26
  ------------------------------------------------------------------------------

     CUMULATIVE VOLUMES      L**3       RATES FOR THIS TIME STEP      L**3/T
     ------------------                 ------------------------

           IN:                                      IN:
           ---                                      ---
             STORAGE     =   610828160.0000               STORAGE     =           3.6349
       CONSTANT HEAD     =           0.0000         CONSTANT HEAD     =           0.0000
     HEAD DEP BOUNDS     =    18966752.0000       HEAD DEP BOUNDS     =           0.2885
      STREAM LEAKAGE     =   768384128.0000        STREAM LEAKAGE     =          11.3926
        UZF RECHARGE     =      175481.8594          UZF RECHARGE     =           0.0000
               GW ET     =           0.0000                 GW ET     =           0.0000
     SURFACE LEAKAGE     =           0.0000       SURFACE LEAKAGE     =           0.0000
           AG WELLS      =           0.0000             AG WELLS      =           0.0000

                TOTAL IN =  1398354560.0000                  TOTAL IN =          15.3160

          OUT:                                     OUT:
          ----                                     ----
             STORAGE     =   285448384.0000               STORAGE     =           5.0857
       CONSTANT HEAD     =           0.0000         CONSTANT HEAD     =           0.0000
     HEAD DEP BOUNDS     =    18949170.0000       HEAD DEP BOUNDS     =           0.2872
      STREAM LEAKAGE     =   674234496.0000        STREAM LEAKAGE     =           9.9435
        UZF RECHARGE     =           0.0000          UZF RECHARGE     =           0.0000
               GW ET     =           0.0000                 GW ET     =           0.0000
     SURFACE LEAKAGE     =           0.0000       SURFACE LEAKAGE     =           0.0000
           AG WELLS      =   419684928.0000             AG WELLS      =           0.0000

               TOTAL OUT =  1398317056.0000                 TOTAL OUT =          15.3164

                IN - OUT =       37504.0000                  IN - OUT =      -4.1199E-04

     PERCENT DISCREPANCY =           0.00         PERCENT DISCREPANCY =          -0.00






         TIME SUMMARY AT END OF TIME STEP   30 IN STRESS PERIOD   26
                    SECONDS     MINUTES      HOURS       DAYS        YEARS
                    -----------------------------------------------------------
   TIME STEP LENGTH  87667.      1461.1      24.352      1.0147     2.77799E-03
 STRESS PERIOD TIME 2.63000E+06  43833.      730.56      30.440     8.33397E-02
         TOTAL TIME 6.58368E+07 1.09728E+06  18288.      762.00      2.0862    
1
1
                            STRESS PERIOD NO.   27, LENGTH =   2630000.    
                            -----------------------------------------------

                              NUMBER OF TIME STEPS =    30

                               MULTIPLIER FOR DELT =     1.000

                            INITIAL TIME STEP SIZE =   87666.66    

 REUSING NON-PARAMETER GHB CELLS FROM LAST STRESS PERIOD

      2 GHB CELLS

 REUSING STREAM SEGMENT DATA FROM LAST STRESS PERIOD



            AREAL INFILTRATION RATE
 READING ON UNIT   19 WITH FORMAT: (10F4.0)            

            1           2           3           4           5           6           7           8           9          10
 ........................................................................................................................
   1   1.2000E-09   0.000       0.000       0.000       0.000       0.000       0.000       0.000       0.000       0.000    
   2   2.1000E-09  2.0000E-09  8.0000E-10  8.5000E-09   0.000       0.000       0.000       0.000       0.000       0.000    
   3   5.0000E-10  1.1000E-09  8.8000E-09  5.5000E-09   0.000       0.000       0.000       0.000       0.000       0.000    
   4   8.5000E-09  1.1000E-09  1.1000E-09  1.1000E-09  2.0000E-09   0.000       0.000       0.000       0.000       0.000    
   5   8.5000E-09  1.1000E-09  1.1000E-09  1.1000E-09  1.1000E-09   0.000       0.000       0.000       0.000       0.000    
   6   8.5000E-09  5.2000E-09  2.1000E-09  1.1000E-09  1.5000E-09   0.000       0.000       0.000       0.000       0.000    
   7   8.5000E-09  5.2000E-09  2.1000E-09  1.2000E-09  2.0000E-09   0.000       0.000       0.000       0.000       0.000    
   8   5.0000E-10  5.2000E-09  2.1000E-09  1.2000E-09  5.0000E-09   0.000       0.000       0.000       0.000       0.000    
   9   5.0000E-10  5.2000E-09  2.1000E-09  1.2000E-09  5.0000E-09   0.000       0.000       0.000       0.000       0.000    
  10   5.0000E-10  5.2000E-09  2.1000E-09  1.2000E-09  5.8000E-09   0.000       0.000       0.000       0.000       0.000    
  11   1.0000E-10  1.1000E-09  1.1000E-09  1.2000E-09  5.0000E-09   0.000       0.000       0.000       0.000       0.000    
  12   1.1000E-09  1.1000E-09  1.1000E-09  1.1000E-09  2.0000E-09   0.000       0.000       0.000       0.000       0.000    
  13   1.1000E-09  2.2000E-09  2.2000E-09  2.1000E-09  1.0000E-09   0.000       0.000       0.000       0.000       0.000    
  14   2.0000E-10  5.5000E-09  5.5000E-09  5.2000E-09  1.0000E-09   0.000       0.000       0.000       0.000       0.000    
  15    0.000      8.8000E-09  8.8000E-09   0.000       0.000       0.000       0.000       0.000       0.000       0.000    

                  ET RATE =  5.000000E-10

 USING ET EXTINCTION DEPTH FROM PREVIOUS STRESS PERIOD. CURRENT PERIOD IS:      27

 USING EXTINCTION WATER CONTENT FROM PREVIOUS STRESS PERIOD. CURRENT PERIOD IS:      27

 USING AIR ENTRY PRESSURE FROM PREVIOUS STRESS PERIOD. CURRENT PERIOD IS:      27

 USING ROOT PRESSURE HEAD FROM PREVIOUS STRESS PERIOD. CURRENT PERIOD IS:      27

 USING ROOT ACTIVITY FROM PREVIOUS STRESS PERIOD. CURRENT PERIOD IS:      27

 PROCESSING AG STRESS PERIOD DATA

 READING AG STRESS PERIOD DATA

 READING IRRIGATION SEGMENT

 READING IRRIGATION WELL

 READING SUPPLEMENTAL WELL

 END PROCESSING AG STRESS PERIOD DATA OPTIONS
 
 SOLVING FOR HEAD 
                                                   Max.-Head-Change                         Max.-Flux-Residual
  Residual-Control   Outer-Iter.   Inner-Iter.     Column Row Layer    Maximum-Head-Change  Column Row Layer    Maximum-Flux-Residual          L2-NORM 
          0                 1           2             4    7     1       0.1115727771E-01       4    7    1         0.5854825361E+00      0.1419700348E+01
          0                 2           2             4    7     1      -0.1085301587E-02       4    7    1        -0.5854843638E-01      0.1419697497E+00
          0                 3           1             4    7     1       0.7390499007E-04       4    7    1         0.4098390577E-02      0.9937858290E-02

    ------------------------------------------------
       NWT REQUIRED            3 OUTER ITERATIONS 
       AND A TOTAL OF          5 INNER ITERATIONS.
    ------------------------------------------------

 NO OUTPUT CONTROL FOR STRESS PERIOD   27   TIME STEP    1
 
 SOLVING FOR HEAD 
                                                   Max.-Head-Change                         Max.-Flux-Residual
  Residual-Control   Outer-Iter.   Inner-Iter.     Column Row Layer    Maximum-Head-Change  Column Row Layer    Maximum-Flux-Residual          L2-NORM 
          0                 1           2             4    7     1       0.1104798358E-01       4    7    1         0.5797126063E+00      0.1407751321E+01
          0                 2           2             4    7     1      -0.1074670183E-02       4    7    1        -0.5797143899E-01      0.1407741583E+00
          0                 3           1             4    7     1       0.7318103198E-04       4    7    1         0.4058000804E-02      0.9854113195E-02

    ------------------------------------------------
       NWT REQUIRED            3 OUTER ITERATIONS 
       AND A TOTAL OF          5 INNER ITERATIONS.
    ------------------------------------------------

 NO OUTPUT CONTROL FOR STRESS PERIOD   27   TIME STEP    2
 
 SOLVING FOR HEAD 
                                                   Max.-Head-Change                         Max.-Flux-Residual
  Residual-Control   Outer-Iter.   Inner-Iter.     Column Row Layer    Maximum-Head-Change  Column Row Layer    Maximum-Flux-Residual          L2-NORM 
          0                 1           2             4    7     1       0.1094056634E-01       4    7    1         0.5740385085E+00      0.1423741338E+01
          0                 2           2             4    7     1      -0.1064221350E-02       4    7    1        -0.5740402488E-01      0.1422400213E+00
          0                 3           1             4    7     1       0.7246950550E-04       4    7    1         0.4018281835E-02      0.9944871149E-02

    ------------------------------------------------
       NWT REQUIRED            3 OUTER ITERATIONS 
       AND A TOTAL OF          5 INNER ITERATIONS.
    ------------------------------------------------

 NO OUTPUT CONTROL FOR STRESS PERIOD   27   TIME STEP    3
 
 SOLVING FOR HEAD 
                                                   Max.-Head-Change                         Max.-Flux-Residual
  Residual-Control   Outer-Iter.   Inner-Iter.     Column Row Layer    Maximum-Head-Change  Column Row Layer    Maximum-Flux-Residual          L2-NORM 
          0                 1           2             4    7     1       0.1083483543E-01       4    7    1         0.5684543896E+00      0.1409374757E+01
          0                 2           2             4    7     1      -0.1053936554E-02       4    7    1        -0.5684560877E-01      0.1408224324E+00
          0                 3           1             4    7     1       0.7176914953E-04       4    7    1         0.3979192718E-02      0.9847156049E-02

    ------------------------------------------------
       NWT REQUIRED            3 OUTER ITERATIONS 
       AND A TOTAL OF          5 INNER ITERATIONS.
    ------------------------------------------------

 NO OUTPUT CONTROL FOR STRESS PERIOD   27   TIME STEP    4
 
 SOLVING FOR HEAD 
                                                   Max.-Head-Change                         Max.-Flux-Residual
  Residual-Control   Outer-Iter.   Inner-Iter.     Column Row Layer    Maximum-Head-Change  Column Row Layer    Maximum-Flux-Residual          L2-NORM 
          0                 1           2             4    7     1       0.1073075067E-01       4    7    1         0.5629577042E+00      0.1395729720E+01
          0                 2           2             4    7     1      -0.1043811885E-02       4    7    1        -0.5629593616E-01      0.1394747233E+00
          0                 3           1             4    7     1       0.7107969780E-04       4    7    1         0.3940715665E-02      0.9754116865E-02

    ------------------------------------------------
       NWT REQUIRED            3 OUTER ITERATIONS 
       AND A TOTAL OF          5 INNER ITERATIONS.
    ------------------------------------------------

 NO OUTPUT CONTROL FOR STRESS PERIOD   27   TIME STEP    5
 
 SOLVING FOR HEAD 
                                                   Max.-Head-Change                         Max.-Flux-Residual
  Residual-Control   Outer-Iter.   Inner-Iter.     Column Row Layer    Maximum-Head-Change  Column Row Layer    Maximum-Flux-Residual          L2-NORM 
          0                 1           2             4    7     1       0.1062840420E-01       4    7    1         0.5575537053E+00      0.1382709256E+01
          0                 2           2             4    7     1      -0.1033856306E-02       4    7    1        -0.5575553232E-01      0.1381869811E+00
          0                 3           1             4    7     1       0.7040175988E-04       4    7    1         0.3902887400E-02      0.9665454214E-02

    ------------------------------------------------
       NWT REQUIRED            3 OUTER ITERATIONS 
       AND A TOTAL OF          5 INNER ITERATIONS.
    ------------------------------------------------

 NO OUTPUT CONTROL FOR STRESS PERIOD   27   TIME STEP    6
 
 SOLVING FOR HEAD 
                                                   Max.-Head-Change                         Max.-Flux-Residual
  Residual-Control   Outer-Iter.   Inner-Iter.     Column Row Layer    Maximum-Head-Change  Column Row Layer    Maximum-Flux-Residual          L2-NORM 
          0                 1           2             4    7     1       0.1052774854E-01       4    7    1         0.5522398340E+00      0.1370245152E+01
          0                 2           2             4    7     1      -0.1024065198E-02       4    7    1        -0.5522414137E-01      0.1369523096E+00
          0                 3           1             4    7     1       0.6973502287E-04       4    7    1         0.3865690076E-02      0.9579389449E-02

    ------------------------------------------------
       NWT REQUIRED            3 OUTER ITERATIONS 
       AND A TOTAL OF          5 INNER ITERATIONS.
    ------------------------------------------------

 NO OUTPUT CONTROL FOR STRESS PERIOD   27   TIME STEP    7
 
 SOLVING FOR HEAD 
                                                   Max.-Head-Change                         Max.-Flux-Residual
  Residual-Control   Outer-Iter.   Inner-Iter.     Column Row Layer    Maximum-Head-Change  Column Row Layer    Maximum-Flux-Residual          L2-NORM 
          0                 1           2             4    7     1       0.1042860717E-01       4    7    1         0.5470062918E+00      0.1358265436E+01
          0                 2           2             4    7     1      -0.1014421391E-02       4    7    1        -0.5470078343E-01      0.1357653423E+00
          0                 3           1             4    7     1       0.6907831560E-04       4    7    1         0.3829055036E-02      0.9498027067E-02

    ------------------------------------------------
       NWT REQUIRED            3 OUTER ITERATIONS 
       AND A TOTAL OF          5 INNER ITERATIONS.
    ------------------------------------------------

 NO OUTPUT CONTROL FOR STRESS PERIOD   27   TIME STEP    8
 
 SOLVING FOR HEAD 
                                                   Max.-Head-Change                         Max.-Flux-Residual
  Residual-Control   Outer-Iter.   Inner-Iter.     Column Row Layer    Maximum-Head-Change  Column Row Layer    Maximum-Flux-Residual          L2-NORM 
          0                 1           2             4    7     1       0.1033094018E-01       4    7    1         0.5418512630E+00      0.1346707532E+01
          0                 2           2             4    7     1      -0.1004921003E-02       4    7    1        -0.5418527697E-01      0.1346187124E+00
          0                 3           1             4    7     1       0.6843137501E-04       4    7    1         0.3792969590E-02      0.9418494571E-02

    ------------------------------------------------
       NWT REQUIRED            3 OUTER ITERATIONS 
       AND A TOTAL OF          5 INNER ITERATIONS.
    ------------------------------------------------

 NO OUTPUT CONTROL FOR STRESS PERIOD   27   TIME STEP    9
 
 SOLVING FOR HEAD 
                                                   Max.-Head-Change                         Max.-Flux-Residual
  Residual-Control   Outer-Iter.   Inner-Iter.     Column Row Layer    Maximum-Head-Change  Column Row Layer    Maximum-Flux-Residual          L2-NORM 
          0                 1           2             4    7     1       0.1023484633E-01       4    7    1         0.5367800153E+00      0.1335536157E+01
          0                 2           2             4    7     1      -0.9955736405E-03       4    7    1        -0.5367814871E-01      0.1335090564E+00
          0                 3           1             4    7     1       0.6779485479E-04       4    7    1         0.3757470644E-02      0.9341667451E-02

    ------------------------------------------------
       NWT REQUIRED            3 OUTER ITERATIONS 
       AND A TOTAL OF          5 INNER ITERATIONS.
    ------------------------------------------------

 NO OUTPUT CONTROL FOR STRESS PERIOD   27   TIME STEP   10
 
 SOLVING FOR HEAD 
                                                   Max.-Head-Change                         Max.-Flux-Residual
  Residual-Control   Outer-Iter.   Inner-Iter.     Column Row Layer    Maximum-Head-Change  Column Row Layer    Maximum-Flux-Residual          L2-NORM 
          0                 1           2             4    7     1       0.1014015428E-01       4    7    1         0.5317829952E+00      0.1324707547E+01
          0                 2           2             4    7     1      -0.9863626366E-03       4    7    1        -0.5317844330E-01      0.1324327293E+00
          0                 3           1             4    7     1       0.6716762009E-04       4    7    1         0.3722491283E-02      0.9266635892E-02

    ------------------------------------------------
       NWT REQUIRED            3 OUTER ITERATIONS 
       AND A TOTAL OF          5 INNER ITERATIONS.
    ------------------------------------------------

 NO OUTPUT CONTROL FOR STRESS PERIOD   27   TIME STEP   11
 
 SOLVING FOR HEAD 
                                                   Max.-Head-Change                         Max.-Flux-Residual
  Residual-Control   Outer-Iter.   Inner-Iter.     Column Row Layer    Maximum-Head-Change  Column Row Layer    Maximum-Flux-Residual          L2-NORM 
          0                 1           2             4    7     1       0.1004696403E-01       4    7    1         0.5268659938E+00      0.1314187367E+01
          0                 2           2             4    7     1      -0.9772977178E-03       4    7    1        -0.5268673989E-01      0.1313862425E+00
          0                 3           1             4    7     1       0.6655033336E-04       4    7    1         0.3688072052E-02      0.9194053556E-02

    ------------------------------------------------
       NWT REQUIRED            3 OUTER ITERATIONS 
       AND A TOTAL OF          5 INNER ITERATIONS.
    ------------------------------------------------

 NO OUTPUT CONTROL FOR STRESS PERIOD   27   TIME STEP   12
 
 SOLVING FOR HEAD 
                                                   Max.-Head-Change                         Max.-Flux-Residual
  Residual-Control   Outer-Iter.   Inner-Iter.     Column Row Layer    Maximum-Head-Change  Column Row Layer    Maximum-Flux-Residual          L2-NORM 
          0                 1           2             4    7     1       0.9955239184E-02       4    7    1         0.5220268582E+00      0.1303949162E+01
          0                 2           2             4    7     1      -0.9683753435E-03       4    7    1        -0.5220282311E-01      0.1302455342E+00
          0                 3           1             4    7     1       0.6594275319E-04       4    7    1         0.3654197893E-02      0.9115874172E-02

    ------------------------------------------------
       NWT REQUIRED            3 OUTER ITERATIONS 
       AND A TOTAL OF          5 INNER ITERATIONS.
    ------------------------------------------------

 NO OUTPUT CONTROL FOR STRESS PERIOD   27   TIME STEP   13
 
 SOLVING FOR HEAD 
                                                   Max.-Head-Change                         Max.-Flux-Residual
  Residual-Control   Outer-Iter.   Inner-Iter.     Column Row Layer    Maximum-Head-Change  Column Row Layer    Maximum-Flux-Residual          L2-NORM 
          0                 1           2             4    7     1       0.9864805252E-02       4    7    1         0.5172563637E+00      0.1296348862E+01
          0                 2           2             4    7     1      -0.9595785426E-03       4    7    1        -0.5172577056E-01      0.1298663430E+00
          0                 3           1             4    7     1       0.6534372403E-04       4    7    1         0.3620804263E-02      0.9188689764E-02

    ------------------------------------------------
       NWT REQUIRED            3 OUTER ITERATIONS 
       AND A TOTAL OF          5 INNER ITERATIONS.
    ------------------------------------------------

 NO OUTPUT CONTROL FOR STRESS PERIOD   27   TIME STEP   14
 
 SOLVING FOR HEAD 
                                                   Max.-Head-Change                         Max.-Flux-Residual
  Residual-Control   Outer-Iter.   Inner-Iter.     Column Row Layer    Maximum-Head-Change  Column Row Layer    Maximum-Flux-Residual          L2-NORM 
          0                 1           2             4    7     1       0.9775770390E-02       4    7    1         0.5125601388E+00      0.1286070520E+01
          0                 2           2             4    7     1      -0.9509178333E-03       4    7    1        -0.5125614507E-01      0.1287887549E+00
          0                 3           1             4    7     1       0.6475396205E-04       4    7    1         0.3587930460E-02      0.9093119863E-02

    ------------------------------------------------
       NWT REQUIRED            3 OUTER ITERATIONS 
       AND A TOTAL OF          5 INNER ITERATIONS.
    ------------------------------------------------

 NO OUTPUT CONTROL FOR STRESS PERIOD   27   TIME STEP   15
 
 SOLVING FOR HEAD 
                                                   Max.-Head-Change                         Max.-Flux-Residual
  Residual-Control   Outer-Iter.   Inner-Iter.     Column Row Layer    Maximum-Head-Change  Column Row Layer    Maximum-Flux-Residual          L2-NORM 
          0                 1           2             4    7     1       0.9688099993E-02       4    7    1         0.5079364537E+00      0.1276112698E+01
          0                 2           2             4    7     1      -0.9423898511E-03       4    7    1        -0.5079377363E-01      0.1277536955E+00
          0                 3           1             4    7     1       0.6417323862E-04       4    7    1         0.3555564474E-02      0.9004173623E-02

    ------------------------------------------------
       NWT REQUIRED            3 OUTER ITERATIONS 
       AND A TOTAL OF          5 INNER ITERATIONS.
    ------------------------------------------------

 NO OUTPUT CONTROL FOR STRESS PERIOD   27   TIME STEP   16
 
 SOLVING FOR HEAD 
                                                   Max.-Head-Change                         Max.-Flux-Residual
  Residual-Control   Outer-Iter.   Inner-Iter.     Column Row Layer    Maximum-Head-Change  Column Row Layer    Maximum-Flux-Residual          L2-NORM 
          0                 1           2             4    7     1       0.9601625641E-02       4    7    1         0.5033761758E+00      0.1266447678E+01
          0                 2           2             4    7     1      -0.9339782126E-03       4    7    1        -0.5033774299E-01      0.1267563849E+00
          0                 3           1             4    7     1       0.6360043770E-04       4    7    1         0.3523642350E-02      0.8921493638E-02

    ------------------------------------------------
       NWT REQUIRED            3 OUTER ITERATIONS 
       AND A TOTAL OF          5 INNER ITERATIONS.
    ------------------------------------------------

 NO OUTPUT CONTROL FOR STRESS PERIOD   27   TIME STEP   17
 
 SOLVING FOR HEAD 
                                                   Max.-Head-Change                         Max.-Flux-Residual
  Residual-Control   Outer-Iter.   Inner-Iter.     Column Row Layer    Maximum-Head-Change  Column Row Layer    Maximum-Flux-Residual          L2-NORM 
          0                 1           2             4    7     1       0.9516457621E-02       4    7    1         0.4988852491E+00      0.1257037824E+01
          0                 2           2             4    7     1      -0.9256936456E-03       4    7    1        -0.4988864756E-01      0.1257922643E+00
          0                 3           1             4    7     1       0.6303628933E-04       4    7    1         0.3492205670E-02      0.8844424266E-02

    ------------------------------------------------
       NWT REQUIRED            3 OUTER ITERATIONS 
       AND A TOTAL OF          5 INNER ITERATIONS.
    ------------------------------------------------

 NO OUTPUT CONTROL FOR STRESS PERIOD   27   TIME STEP   18
 
 SOLVING FOR HEAD 
                                                   Max.-Head-Change                         Max.-Flux-Residual
  Residual-Control   Outer-Iter.   Inner-Iter.     Column Row Layer    Maximum-Head-Change  Column Row Layer    Maximum-Flux-Residual          L2-NORM 
          0                 1           2             4    7     1       0.9432561463E-02       4    7    1         0.4944620538E+00      0.1247849495E+01
          0                 2           2             4    7     1      -0.9175327976E-03       4    7    1        -0.4944632535E-01      0.1248543080E+00
          0                 3           1             4    7     1       0.6248056640E-04       4    7    1         0.3461243126E-02      0.8770560522E-02

    ------------------------------------------------
       NWT REQUIRED            3 OUTER ITERATIONS 
       AND A TOTAL OF          5 INNER ITERATIONS.
    ------------------------------------------------

 NO OUTPUT CONTROL FOR STRESS PERIOD   27   TIME STEP   19
 
 SOLVING FOR HEAD 
                                                   Max.-Head-Change                         Max.-Flux-Residual
  Residual-Control   Outer-Iter.   Inner-Iter.     Column Row Layer    Maximum-Head-Change  Column Row Layer    Maximum-Flux-Residual          L2-NORM 
          0                 1           2             4    7     1       0.9349908923E-02       4    7    1         0.4901048025E+00      0.1238867222E+01
          0                 2           2             4    7     1      -0.9094929206E-03       4    7    1        -0.4901059762E-01      0.1239407865E+00
          0                 3           1             4    7     1       0.6193308125E-04       4    7    1         0.3430742194E-02      0.8700041102E-02

    ------------------------------------------------
       NWT REQUIRED            3 OUTER ITERATIONS 
       AND A TOTAL OF          5 INNER ITERATIONS.
    ------------------------------------------------

 NO OUTPUT CONTROL FOR STRESS PERIOD   27   TIME STEP   20
 
 SOLVING FOR HEAD 
                                                   Max.-Head-Change                         Max.-Flux-Residual
  Residual-Control   Outer-Iter.   Inner-Iter.     Column Row Layer    Maximum-Head-Change  Column Row Layer    Maximum-Flux-Residual          L2-NORM 
          0                 1           2             4    7     1       0.9268336178E-02       4    7    1         0.4858046922E+00      0.1230072228E+01
          0                 2           2             4    7     1      -0.9015580794E-03       4    7    1        -0.4858058405E-01      0.1230494622E+00
          0                 3           1             4    7     1       0.6139274800E-04       4    7    1         0.3400641256E-02      0.8632722024E-02

    ------------------------------------------------
       NWT REQUIRED            3 OUTER ITERATIONS 
       AND A TOTAL OF          5 INNER ITERATIONS.
    ------------------------------------------------

 NO OUTPUT CONTROL FOR STRESS PERIOD   27   TIME STEP   21
 
 SOLVING FOR HEAD 
                                                   Max.-Head-Change                         Max.-Flux-Residual
  Residual-Control   Outer-Iter.   Inner-Iter.     Column Row Layer    Maximum-Head-Change  Column Row Layer    Maximum-Flux-Residual          L2-NORM 
          0                 1           2             4    7     1       0.9187958098E-02       4    7    1         0.4815679063E+00      0.1221450238E+01
          0                 2           2             4    7     1      -0.8937394473E-03       4    7    1        -0.4815690299E-01      0.1221777904E+00
          0                 3           1             4    7     1       0.6086032876E-04       4    7    1         0.3370983600E-02      0.8567568215E-02

    ------------------------------------------------
       NWT REQUIRED            3 OUTER ITERATIONS 
       AND A TOTAL OF          5 INNER ITERATIONS.
    ------------------------------------------------

 NO OUTPUT CONTROL FOR STRESS PERIOD   27   TIME STEP   22
 
 SOLVING FOR HEAD 
                                                   Max.-Head-Change                         Max.-Flux-Residual
  Residual-Control   Outer-Iter.   Inner-Iter.     Column Row Layer    Maximum-Head-Change  Column Row Layer    Maximum-Flux-Residual          L2-NORM 
          0                 1           2             4    7     1       0.9108744439E-02       4    7    1         0.4773930620E+00      0.1212983182E+01
          0                 2           2             4    7     1      -0.8860340832E-03       4    7    1        -0.4773941618E-01      0.1213237526E+00
          0                 3           1             4    7     1       0.6033562199E-04       4    7    1         0.3341759526E-02      0.8504569542E-02

    ------------------------------------------------
       NWT REQUIRED            3 OUTER ITERATIONS 
       AND A TOTAL OF          5 INNER ITERATIONS.
    ------------------------------------------------

 NO OUTPUT CONTROL FOR STRESS PERIOD   27   TIME STEP   23
 
 SOLVING FOR HEAD 
                                                   Max.-Head-Change                         Max.-Flux-Residual
  Residual-Control   Outer-Iter.   Inner-Iter.     Column Row Layer    Maximum-Head-Change  Column Row Layer    Maximum-Flux-Residual          L2-NORM 
          0                 1           2             4    7     1       0.9030668989E-02       4    7    1         0.4732785912E+00      0.1204662931E+01
          0                 2           2             4    7     1      -0.8784394363E-03       4    7    1        -0.4732796677E-01      0.1204862186E+00
          0                 3           1             4    7     1       0.5981845503E-04       4    7    1         0.3312958080E-02      0.8443729753E-02

    ------------------------------------------------
       NWT REQUIRED            3 OUTER ITERATIONS 
       AND A TOTAL OF          5 INNER ITERATIONS.
    ------------------------------------------------

 NO OUTPUT CONTROL FOR STRESS PERIOD   27   TIME STEP   24
 
 SOLVING FOR HEAD 
                                                   Max.-Head-Change                         Max.-Flux-Residual
  Residual-Control   Outer-Iter.   Inner-Iter.     Column Row Layer    Maximum-Head-Change  Column Row Layer    Maximum-Flux-Residual          L2-NORM 
          0                 1           2             4    7     1       0.8953573108E-02       4    7    1         0.4692157955E+00      0.1196480948E+01
          0                 2           2             4    7     1      -0.8709400758E-03       4    7    1        -0.4692168491E-01      0.1196632680E+00
          0                 3           1             4    7     1       0.5930777695E-04       4    7    1         0.3284518375E-02      0.8383893211E-02

    ------------------------------------------------
       NWT REQUIRED            3 OUTER ITERATIONS 
       AND A TOTAL OF          5 INNER ITERATIONS.
    ------------------------------------------------

 NO OUTPUT CONTROL FOR STRESS PERIOD   27   TIME STEP   25
 
 SOLVING FOR HEAD 
                                                   Max.-Head-Change                         Max.-Flux-Residual
  Residual-Control   Outer-Iter.   Inner-Iter.     Column Row Layer    Maximum-Head-Change  Column Row Layer    Maximum-Flux-Residual          L2-NORM 
          0                 1           2             4    7     1       0.8877702774E-02       4    7    1         0.4652184677E+00      0.1188424969E+01
          0                 2           2             4    7     1      -0.8635599280E-03       4    7    1        -0.4652194991E-01      0.1188539449E+00
          0                 3           1             4    7     1       0.5880521676E-04       4    7    1         0.3256536916E-02      0.8325510387E-02

    ------------------------------------------------
       NWT REQUIRED            3 OUTER ITERATIONS 
       AND A TOTAL OF          5 INNER ITERATIONS.
    ------------------------------------------------

 NO OUTPUT CONTROL FOR STRESS PERIOD   27   TIME STEP   26
 
 SOLVING FOR HEAD 
                                                   Max.-Head-Change                         Max.-Flux-Residual
  Residual-Control   Outer-Iter.   Inner-Iter.     Column Row Layer    Maximum-Head-Change  Column Row Layer    Maximum-Flux-Residual          L2-NORM 
          0                 1           2             4    7     1       0.8802763511E-02       4    7    1         0.4612700036E+00      0.1180502490E+01
          0                 2           2             4    7     1      -0.8562703497E-03       4    7    1        -0.4612710135E-01      0.1180591419E+00
          0                 3           1             4    7     1       0.5830882404E-04       4    7    1         0.3228897551E-02      0.8268706097E-02

    ------------------------------------------------
       NWT REQUIRED            3 OUTER ITERATIONS 
       AND A TOTAL OF          5 INNER ITERATIONS.
    ------------------------------------------------

 NO OUTPUT CONTROL FOR STRESS PERIOD   27   TIME STEP   27
 
 SOLVING FOR HEAD 
                                                   Max.-Head-Change                         Max.-Flux-Residual
  Residual-Control   Outer-Iter.   Inner-Iter.     Column Row Layer    Maximum-Head-Change  Column Row Layer    Maximum-Flux-Residual          L2-NORM 
          0                 1           2             4    7     1       0.8728865214E-02       4    7    1         0.4573771537E+00      0.1172686523E+01
          0                 2           2             4    7     1      -0.8490820290E-03       4    7    1        -0.4573781427E-01      0.1172754126E+00
          0                 3           1             4    7     1       0.5781932584E-04       4    7    1         0.3201647434E-02      0.8212838812E-02

    ------------------------------------------------
       NWT REQUIRED            3 OUTER ITERATIONS 
       AND A TOTAL OF          5 INNER ITERATIONS.
    ------------------------------------------------

 NO OUTPUT CONTROL FOR STRESS PERIOD   27   TIME STEP   28
 
 SOLVING FOR HEAD 
                                                   Max.-Head-Change                         Max.-Flux-Residual
  Residual-Control   Outer-Iter.   Inner-Iter.     Column Row Layer    Maximum-Head-Change  Column Row Layer    Maximum-Flux-Residual          L2-NORM 
          0                 1           2             4    7     1       0.8655991739E-02       4    7    1         0.4535382762E+00      0.1164993409E+01
          0                 2           2             4    7     1      -0.8419933971E-03       4    7    1        -0.4535392449E-01      0.1165044402E+00
          0                 3           1             4    7     1       0.5733661674E-04       4    7    1         0.3174775173E-02      0.8158127752E-02

    ------------------------------------------------
       NWT REQUIRED            3 OUTER ITERATIONS 
       AND A TOTAL OF          5 INNER ITERATIONS.
    ------------------------------------------------

 NO OUTPUT CONTROL FOR STRESS PERIOD   27   TIME STEP   29
 
 SOLVING FOR HEAD 
                                                   Max.-Head-Change                         Max.-Flux-Residual
  Residual-Control   Outer-Iter.   Inner-Iter.     Column Row Layer    Maximum-Head-Change  Column Row Layer    Maximum-Flux-Residual          L2-NORM 
          0                 1           2             4    7     1       0.8584118672E-02       4    7    1         0.4497525344E+00      0.1157397502E+01
          0                 2           2             4    7     1      -0.8350020778E-03       4    7    1        -0.4497534830E-01      0.1157435935E+00
          0                 3           1             4    7     1       0.5686053414E-04       4    7    1         0.3148274844E-02      0.8104248551E-02

    ------------------------------------------------
       NWT REQUIRED            3 OUTER ITERATIONS 
       AND A TOTAL OF          5 INNER ITERATIONS.
    ------------------------------------------------

 NO OUTPUT CONTROL FOR STRESS PERIOD   27   TIME STEP   30



 STREAM LISTING     PERIOD     27   STEP       30

 LAYER ROW COL. STREAM  RCH.  FLOW INTO     FLOW TO   FLOW OUT OF   OVRLND.     DIRECT     STREAM       STREAM     STREAM     STREAM   STREAMBED  STREAMBED
                SEG.NO.  NO.  STRM. RCH.    AQUIFER    STRM. RCH.    RUNOFF     PRECIP       ET          HEAD       DEPTH      WIDTH   CONDCTNC.   GRADIENT

   1    1    1     1     1    1.5750E+01  1.9239E-01   1.5557E+01  0.000E+00  0.000E+00  0.000E+00  1.09407E+03  1.025E+00  1.062E+01  4.780E-02  1.342E+00
   1    2    2     1     2    1.5557E+01  2.9659E-01   1.5261E+01  0.000E+00  0.000E+00  0.000E+00  1.08908E+03  1.020E+00  1.054E+01  7.378E-02  1.340E+00
   1    3    3     1     3    1.5261E+01  2.5163E-01   1.5009E+01  0.000E+00  0.000E+00  0.000E+00  1.08343E+03  1.015E+00  1.045E+01  6.268E-02  1.338E+00
   1    3    4     1     4    1.5009E+01  2.3063E-01   1.4778E+01  0.000E+00  0.000E+00  0.000E+00  1.07842E+03  1.010E+00  1.036E+01  5.751E-02  1.337E+00
   1    4    5     2     1    1.2778E+01  2.9653E-01   1.2482E+01  0.000E+00  0.000E+00  0.000E+00  1.07274E+03  8.017E-01  1.200E+01  7.800E-02  1.267E+00
   1    5    6     2     2    1.2482E+01  2.2750E-01   1.2254E+01  0.000E+00  0.000E+00  0.000E+00  1.06730E+03  7.916E-01  1.200E+01  6.000E-02  1.264E+00
   1    6    6     2     3    1.2254E+01  2.2697E-01   1.2027E+01  0.000E+00  0.000E+00  0.000E+00  1.06258E+03  7.829E-01  1.200E+01  6.000E-02  1.261E+00
   1    7    6     2     4    1.2027E+01  2.2644E-01   1.1801E+01  0.000E+00  0.000E+00  0.000E+00  1.05785E+03  7.741E-01  1.200E+01  6.000E-02  1.258E+00
   1    8    6     2     5    1.1801E+01  2.2591E-01   1.1575E+01  0.000E+00  0.000E+00  0.000E+00  1.05312E+03  7.652E-01  1.200E+01  6.000E-02  1.255E+00
   1    3    5     3     1    2.0000E+00  2.8252E-01   1.7175E+00  0.000E+00  0.000E+00  0.000E+00  1.07555E+03  1.909E+00  9.636E+00  7.227E-02  1.955E+00
   1    3    6     3     2    1.7175E+00  2.4905E-01   1.4684E+00  0.000E+00  0.000E+00  0.000E+00  1.07264E+03  1.727E+00  8.909E+00  6.682E-02  1.864E+00
   1    3    7     3     3    1.4684E+00  1.9718E-01   1.2712E+00  0.000E+00  0.000E+00  0.000E+00  1.06987E+03  1.555E+00  8.218E+00  5.547E-02  1.777E+00
   1    4    8     3     4    1.2712E+00  2.2567E-01   1.0456E+00  0.000E+00  0.000E+00  0.000E+00  1.06682E+03  1.364E+00  7.455E+00  6.709E-02  1.682E+00
   1    5    8     3     5    1.0456E+00  1.5790E-01   8.8768E-01  0.000E+00  0.000E+00  0.000E+00  1.06362E+03  1.164E+00  6.655E+00  4.991E-02  1.582E+00
   1    6    8     3     6    8.8768E-01  5.5980E-02   8.3170E-01  0.000E+00  0.000E+00  0.000E+00  1.06158E+03  1.036E+00  6.145E+00  1.844E-02  1.518E+00
   1    5   10     4     1    1.0000E+01  9.0919E-02   9.9091E+00  0.000E+00  0.000E+00  0.000E+00  1.07836E+03  6.368E-01  1.000E+01  2.500E-02  1.212E+00
   1    5    9     4     2    9.9091E+00  1.8158E-01   9.7275E+00  0.000E+00  0.000E+00  0.000E+00  1.07154E+03  6.315E-01  1.000E+01  5.000E-02  1.211E+00
   1    6    8     4     3    9.7275E+00  1.2689E-01   9.6006E+00  0.000E+00  0.000E+00  0.000E+00  1.06381E+03  6.256E-01  1.000E+01  3.500E-02  1.209E+00
   1    6    8     5     1    1.0432E+01  2.2686E-01   1.0205E+01  0.000E+00  0.000E+00  0.000E+00  1.05868E+03  6.790E-01  1.542E+01  6.166E-02  1.226E+00
   1    7    7     5     2    1.0205E+01  2.7894E-01   9.9265E+00  0.000E+00  0.000E+00  0.000E+00  1.05417E+03  6.732E-01  1.519E+01  7.594E-02  1.224E+00
   1    8    7     5     3    9.9265E+00  1.9221E-01   9.7343E+00  0.000E+00  0.000E+00  0.000E+00  1.04992E+03  6.676E-01  1.497E+01  5.241E-02  1.223E+00
   1    8    6     5     4    9.7343E+00  1.3577E-01   9.5985E+00  0.000E+00  0.000E+00  0.000E+00  1.04691E+03  6.637E-01  1.482E+01  3.706E-02  1.221E+00
   1    9    6     6     1    2.1173E+01  2.4608E-01   2.0927E+01  0.000E+00  0.000E+00  0.000E+00  1.04383E+03  1.101E+00  1.200E+01  6.000E-02  1.367E+00
   1   10    7     6     2    2.0927E+01  2.4562E-01   2.0682E+01  0.000E+00  0.000E+00  0.000E+00  1.03928E+03  1.094E+00  1.200E+01  6.000E-02  1.365E+00
   1   11    7     6     3    2.0682E+01  2.4515E-01   2.0437E+01  0.000E+00  0.000E+00  0.000E+00  1.03472E+03  1.086E+00  1.200E+01  6.000E-02  1.362E+00
   1   12    7     6     4    2.0437E+01  2.4468E-01   2.0192E+01  0.000E+00  0.000E+00  0.000E+00  1.03017E+03  1.078E+00  1.200E+01  6.000E-02  1.359E+00
   1   13    7     6     5    2.0192E+01  6.2629E-03   2.0186E+01  0.000E+00  0.000E+00  0.000E+00  1.02698E+03  1.074E+00  1.200E+01  2.400E-02  8.698E-02
   1   14    9     7     1    1.5000E+02  1.3764E+00   1.4862E+02  0.000E+00  0.000E+00  0.000E+00  1.03987E+03  2.288E+00  5.529E+01  5.593E-01  8.203E-01
   1   13    8     7     2    1.4862E+02  1.9508E+00   1.4667E+02  0.000E+00  0.000E+00  0.000E+00  1.03478E+03  2.279E+00  5.525E+01  6.147E-01  1.058E+00
   1   13    7     7     3    1.4667E+02  1.6563E+00   1.4502E+02  0.000E+00  0.000E+00  0.000E+00  1.02969E+03  2.269E+00  5.521E+01  5.584E-01  9.888E-01
   1   13    6     8     1    1.6520E+02  1.0759E+00   1.6413E+02  0.000E+00  0.000E+00  0.000E+00  1.02479E+03  2.917E+00  4.230E+01  4.310E-01  8.320E-01
   1   13    5     8     2    1.6413E+02  3.1934E-01   1.6381E+02  0.000E+00  0.000E+00  0.000E+00  1.01854E+03  2.912E+00  4.223E+01  4.303E-01  2.474E-01
   1   13    4     8     3    1.6381E+02 -1.9516E+00   1.6576E+02  0.000E+00  0.000E+00  0.000E+00  1.01229E+03  2.918E+00  4.231E+01  4.311E+00 -1.509E-01
   1   13    3     8     4    1.6576E+02 -3.4285E+00   1.6919E+02  0.000E+00  0.000E+00  0.000E+00  1.00606E+03  2.936E+00  4.257E+01  4.338E+00 -2.635E-01
   1   13    2     8     5    1.6919E+02 -2.4974E+00   1.7168E+02  0.000E+00  0.000E+00  0.000E+00  9.99830E+02  2.955E+00  4.285E+01  4.366E+00 -1.907E-01
   1   13    1     8     6    1.7168E+02 -1.9393E+00   1.7362E+02  0.000E+00  0.000E+00  0.000E+00  9.94844E+02  2.969E+00  4.306E+01  2.633E+00 -2.455E-01
   1    8    6     9     1    0.0000E+00  0.0000E+00   0.0000E+00  0.000E+00  0.000E+00  0.000E+00  1.07875E+03  0.000E+00  4.000E+00  0.000E+00  1.000E+00
   1    8    5     9     2    0.0000E+00  0.0000E+00   0.0000E+00  0.000E+00  0.000E+00  0.000E+00  1.07825E+03  0.000E+00  4.000E+00  0.000E+00  1.000E+00





UNSATURATED ZONE PACKAGE VOLUMETRIC BUDGET FOR  TIME STEP    30 STRESS PERIOD   27
  ------------------------------------------------------------------------------



     CUMULATIVE VOLUMES      L**3       RATES FOR THIS TIME STEP      L**3/T
     ------------------                 ------------------------

           IN:                                      IN:
           ---                                      ---
        INFILTRATION =  1100494900.8699          INFILTRATION =           4.4075

          OUT:                                     OUT:
          ----                                     ----
              UZF ET =  1001527738.7036                UZF ET =           0.7250
        UZF RECHARGE =      256082.7245          UZF RECHARGE =           0.0460

            IN - OUT =    98711079.4417              IN - OUT =           3.6365

          STORAGE:                                 STORAGE:
          --------                                 --------
      STORAGE CHANGE =    98711064.4696        STORAGE CHANGE =           3.6365

 PERCENT DISCREPANCY IS DIFFERENCE BETWEEN IN-OUT MINUS CHANGE IN STORAGE
 DIVIDED BY THE AVERAGE OF IN AND OUT TIMES 100

 PERCENT DISCREPANCY =           0.00     PERCENT DISCREPANCY =           0.00






1
  VOLUMETRIC BUDGET FOR AGRICULTURAL FIELDS AT  END OF TIME STEP   30, STRESS PERIOD  27
  ------------------------------------------------------------------------------

     CUMULATIVE VOLUMES      L**3       RATES FOR THIS TIME STEP      L**3/T
     ------------------                 ------------------------

           IN:                                      IN:
           ---                                      ---
               AG WELLS  =   419684928.0000                 AG WELLS  =           0.0000
      DIVERSION SEGMENTS =   379344352.0000        DIVERSION SEGMENTS =           0.0000
           GW IRRIGATION =           0.0000             GW IRRIGATION =           0.0000
           SW IRRIGATION =           0.0000             SW IRRIGATION =           0.0000
        SYSTEM LOSSES GW =           0.0000          SYSTEM LOSSES GW =           0.0000
        SYSTEM LOSSES SW =           0.0000          SYSTEM LOSSES SW =           0.0000

                TOTAL IN =   799029248.0000                  TOTAL IN =           0.0000

          OUT:                                     OUT:
          ----                                     ----
               AG WELLS  =           0.0000                 AG WELLS  =           0.0000
      DIVERSION SEGMENTS =           0.0000        DIVERSION SEGMENTS =           0.0000
           GW IRRIGATION =   419684928.0000             GW IRRIGATION =           0.0000
           SW IRRIGATION =   379352160.0000             SW IRRIGATION =           0.0000
        SYSTEM LOSSES GW =           0.0000          SYSTEM LOSSES GW =           0.0000
        SYSTEM LOSSES SW =           0.0000          SYSTEM LOSSES SW =           0.0000

               TOTAL OUT =   799037056.0000                 TOTAL OUT =           0.0000

                IN - OUT =       -7808.0000                  IN - OUT =           0.0000

     PERCENT DISCREPANCY =          -0.00         PERCENT DISCREPANCY =           0.00



1
  VOLUMETRIC BUDGET FOR ENTIRE MODEL AT END OF TIME STEP   30, STRESS PERIOD  27
  ------------------------------------------------------------------------------

     CUMULATIVE VOLUMES      L**3       RATES FOR THIS TIME STEP      L**3/T
     ------------------                 ------------------------

           IN:                                      IN:
           ---                                      ---
             STORAGE     =   618513280.0000               STORAGE     =           2.5764
       CONSTANT HEAD     =           0.0000         CONSTANT HEAD     =           0.0000
     HEAD DEP BOUNDS     =    19725510.0000       HEAD DEP BOUNDS     =           0.2885
      STREAM LEAKAGE     =   799692160.0000        STREAM LEAKAGE     =          11.9426
        UZF RECHARGE     =      256082.6562          UZF RECHARGE     =       4.6028E-02
               GW ET     =           0.0000                 GW ET     =           0.0000
     SURFACE LEAKAGE     =           0.0000       SURFACE LEAKAGE     =           0.0000
           AG WELLS      =           0.0000             AG WELLS      =           0.0000

                TOTAL IN =  1438187136.0000                  TOTAL IN =          14.8536

          OUT:                                     OUT:
          ----                                     ----
             STORAGE     =   299025952.0000               STORAGE     =           4.7493
       CONSTANT HEAD     =           0.0000         CONSTANT HEAD     =           0.0000
     HEAD DEP BOUNDS     =    19705806.0000       HEAD DEP BOUNDS     =           0.2881
      STREAM LEAKAGE     =   699734464.0000        STREAM LEAKAGE     =           9.8167
        UZF RECHARGE     =           0.0000          UZF RECHARGE     =           0.0000
               GW ET     =           0.0000                 GW ET     =           0.0000
     SURFACE LEAKAGE     =           0.0000       SURFACE LEAKAGE     =           0.0000
           AG WELLS      =   419684928.0000             AG WELLS      =           0.0000

               TOTAL OUT =  1438151168.0000                 TOTAL OUT =          14.8541

                IN - OUT =       35968.0000                  IN - OUT =      -5.8460E-04

     PERCENT DISCREPANCY =           0.00         PERCENT DISCREPANCY =          -0.00






         TIME SUMMARY AT END OF TIME STEP   30 IN STRESS PERIOD   27
                    SECONDS     MINUTES      HOURS       DAYS        YEARS
                    -----------------------------------------------------------
   TIME STEP LENGTH  87667.      1461.1      24.352      1.0147     2.77799E-03
 STRESS PERIOD TIME 2.63000E+06  43833.      730.56      30.440     8.33397E-02
         TOTAL TIME 6.84668E+07 1.14111E+06  19019.      792.44      2.1696    
1
1
                            STRESS PERIOD NO.   28, LENGTH =   2630000.    
                            -----------------------------------------------

                              NUMBER OF TIME STEPS =    30

                               MULTIPLIER FOR DELT =     1.000

                            INITIAL TIME STEP SIZE =   87666.66    

 REUSING NON-PARAMETER GHB CELLS FROM LAST STRESS PERIOD

      2 GHB CELLS

 REUSING STREAM SEGMENT DATA FROM LAST STRESS PERIOD



            AREAL INFILTRATION RATE
 READING ON UNIT   19 WITH FORMAT: (10F4.0)            

            1           2           3           4           5           6           7           8           9          10
 ........................................................................................................................
   1   1.2000E-09   0.000       0.000       0.000       0.000       0.000       0.000       0.000       0.000       0.000    
   2   2.1000E-09  2.0000E-09  8.0000E-10  8.5000E-09   0.000       0.000       0.000       0.000       0.000       0.000    
   3   5.0000E-10  1.1000E-09  8.8000E-09  5.5000E-09   0.000       0.000       0.000       0.000       0.000       0.000    
   4   8.5000E-09  1.1000E-09  1.1000E-09  1.1000E-09  2.0000E-09   0.000       0.000       0.000       0.000       0.000    
   5   8.5000E-09  1.1000E-09  1.1000E-09  1.1000E-09  1.1000E-09   0.000       0.000       0.000       0.000       0.000    
   6   8.5000E-09  5.2000E-09  2.1000E-09  1.1000E-09  1.5000E-09   0.000       0.000       0.000       0.000       0.000    
   7   8.5000E-09  5.2000E-09  2.1000E-09  1.2000E-09  2.0000E-09   0.000       0.000       0.000       0.000       0.000    
   8   5.0000E-10  5.2000E-09  2.1000E-09  1.2000E-09  5.0000E-09   0.000       0.000       0.000       0.000       0.000    
   9   5.0000E-10  5.2000E-09  2.1000E-09  1.2000E-09  5.0000E-09   0.000       0.000       0.000       0.000       0.000    
  10   5.0000E-10  5.2000E-09  2.1000E-09  1.2000E-09  5.8000E-09   0.000       0.000       0.000       0.000       0.000    
  11   1.0000E-10  1.1000E-09  1.1000E-09  1.2000E-09  5.0000E-09   0.000       0.000       0.000       0.000       0.000    
  12   1.1000E-09  1.1000E-09  1.1000E-09  1.1000E-09  2.0000E-09   0.000       0.000       0.000       0.000       0.000    
  13   1.1000E-09  2.2000E-09  2.2000E-09  2.1000E-09  1.0000E-09   0.000       0.000       0.000       0.000       0.000    
  14   2.0000E-10  5.5000E-09  5.5000E-09  5.2000E-09  1.0000E-09   0.000       0.000       0.000       0.000       0.000    
  15    0.000      8.8000E-09  8.8000E-09   0.000       0.000       0.000       0.000       0.000       0.000       0.000    

                  ET RATE =  5.000000E-10

 USING ET EXTINCTION DEPTH FROM PREVIOUS STRESS PERIOD. CURRENT PERIOD IS:      28

 USING EXTINCTION WATER CONTENT FROM PREVIOUS STRESS PERIOD. CURRENT PERIOD IS:      28

 USING AIR ENTRY PRESSURE FROM PREVIOUS STRESS PERIOD. CURRENT PERIOD IS:      28

 USING ROOT PRESSURE HEAD FROM PREVIOUS STRESS PERIOD. CURRENT PERIOD IS:      28

 USING ROOT ACTIVITY FROM PREVIOUS STRESS PERIOD. CURRENT PERIOD IS:      28

 PROCESSING AG STRESS PERIOD DATA

 READING AG STRESS PERIOD DATA

 READING IRRIGATION SEGMENT

 READING IRRIGATION WELL

 READING SUPPLEMENTAL WELL

 END PROCESSING AG STRESS PERIOD DATA OPTIONS
 
 SOLVING FOR HEAD 
                                                   Max.-Head-Change                         Max.-Flux-Residual
  Residual-Control   Outer-Iter.   Inner-Iter.     Column Row Layer    Maximum-Head-Change  Column Row Layer    Maximum-Flux-Residual          L2-NORM 
          0                 1           2             4    7     1       0.8513296754E-02       4    7    1         0.4460186622E+00      0.1214754629E+01
          0                 2           2             4    7     1      -0.8281130071E-03       4    7    1        -0.4460195911E-01      0.1222514646E+00
          0                 3           1             4    7     1       0.5639141292E-04       4    7    1         0.3122137613E-02      0.8877698787E-02

    ------------------------------------------------
       NWT REQUIRED            3 OUTER ITERATIONS 
       AND A TOTAL OF          5 INNER ITERATIONS.
    ------------------------------------------------

 NO OUTPUT CONTROL FOR STRESS PERIOD   28   TIME STEP    1
 
 SOLVING FOR HEAD 
                                                   Max.-Head-Change                         Max.-Flux-Residual
  Residual-Control   Outer-Iter.   Inner-Iter.     Column Row Layer    Maximum-Head-Change  Column Row Layer    Maximum-Flux-Residual          L2-NORM 
          0                 1           2             4    7     1       0.8443539323E-02       4    7    1         0.4423392915E+00      0.1276922529E+01
          0                 2           2             4    7     1      -0.8213274819E-03       4    7    1        -0.4423402008E-01      0.1267065348E+00
          0                 3           1             3   13     1       0.7583614506E-04       3   13    1         0.4339524596E-02      0.9712229214E-02

    ------------------------------------------------
       NWT REQUIRED            3 OUTER ITERATIONS 
       AND A TOTAL OF          5 INNER ITERATIONS.
    ------------------------------------------------

 NO OUTPUT CONTROL FOR STRESS PERIOD   28   TIME STEP    2
 
 SOLVING FOR HEAD 
                                                   Max.-Head-Change                         Max.-Flux-Residual
  Residual-Control   Outer-Iter.   Inner-Iter.     Column Row Layer    Maximum-Head-Change  Column Row Layer    Maximum-Flux-Residual          L2-NORM 
          0                 1           2             4    7     1       0.8374814298E-02       4    7    1         0.4387151136E+00      0.1262125213E+01
          0                 2           2             4    7     1      -0.8146423831E-03       4    7    1        -0.4387160038E-01      0.1297588624E+00
          0                 3           1             4   13     1       0.8497180032E-04       4   13    1         0.4883085752E-02      0.1054956541E-01

    ------------------------------------------------
       NWT REQUIRED            3 OUTER ITERATIONS 
       AND A TOTAL OF          5 INNER ITERATIONS.
    ------------------------------------------------

 NO OUTPUT CONTROL FOR STRESS PERIOD   28   TIME STEP    3
 
 SOLVING FOR HEAD 
                                                   Max.-Head-Change                         Max.-Flux-Residual
  Residual-Control   Outer-Iter.   Inner-Iter.     Column Row Layer    Maximum-Head-Change  Column Row Layer    Maximum-Flux-Residual          L2-NORM 
          0                 1           2             4    7     1       0.8306962491E-02       4    7    1         0.4351371237E+00      0.1238987381E+01
          0                 2           2             4    7     1      -0.8080422253E-03       4    7    1        -0.4351379956E-01      0.1267641503E+00
          0                 3           1             4   13     1       0.7494238000E-04       4   13    1         0.4305092642E-02      0.1007820922E-01

    ------------------------------------------------
       NWT REQUIRED            3 OUTER ITERATIONS 
       AND A TOTAL OF          5 INNER ITERATIONS.
    ------------------------------------------------

 NO OUTPUT CONTROL FOR STRESS PERIOD   28   TIME STEP    4
 
 SOLVING FOR HEAD 
                                                   Max.-Head-Change                         Max.-Flux-Residual
  Residual-Control   Outer-Iter.   Inner-Iter.     Column Row Layer    Maximum-Head-Change  Column Row Layer    Maximum-Flux-Residual          L2-NORM 
          0                 1           2             4    7     1       0.8240230493E-02       4    7    1         0.4316190900E+00      0.1218758751E+01
          0                 2           2             4    7     1      -0.8015509947E-03       4    7    1        -0.4316199439E-01      0.1241872261E+00
          0                 3           1             4   13     1       0.6602539782E-04       4   13    1         0.3791327470E-02      0.9676147091E-02

    ------------------------------------------------
       NWT REQUIRED            3 OUTER ITERATIONS 
       AND A TOTAL OF          5 INNER ITERATIONS.
    ------------------------------------------------

 NO OUTPUT CONTROL FOR STRESS PERIOD   28   TIME STEP    5
 
 SOLVING FOR HEAD 
                                                   Max.-Head-Change                         Max.-Flux-Residual
  Residual-Control   Outer-Iter.   Inner-Iter.     Column Row Layer    Maximum-Head-Change  Column Row Layer    Maximum-Flux-Residual          L2-NORM 
          0                 1           2             4    7     1       0.8174454255E-02       4    7    1         0.4281517762E+00      0.1200919110E+01
          0                 2           2             4    7     1      -0.7951527345E-03       4    7    1        -0.4281526126E-01      0.1219319331E+00
          0                 3           1             4   13     1       0.5792939839E-04       4   13    1         0.3324976168E-02      0.9328461570E-02

    ------------------------------------------------
       NWT REQUIRED            3 OUTER ITERATIONS 
       AND A TOTAL OF          5 INNER ITERATIONS.
    ------------------------------------------------

 NO OUTPUT CONTROL FOR STRESS PERIOD   28   TIME STEP    6
 
 SOLVING FOR HEAD 
                                                   Max.-Head-Change                         Max.-Flux-Residual
  Residual-Control   Outer-Iter.   Inner-Iter.     Column Row Layer    Maximum-Head-Change  Column Row Layer    Maximum-Flux-Residual          L2-NORM 
          0                 1           2             4    7     1       0.8109609370E-02       4    7    1         0.4247340169E+00      0.1185044234E+01
          0                 2           2             4    7     1      -0.7888450705E-03       4    7    1        -0.4247348365E-01      0.1199751489E+00
          0                 3           1             4    7     1       0.5371741369E-04       4    7    1         0.2973144370E-02      0.9040660895E-02

    ------------------------------------------------
       NWT REQUIRED            3 OUTER ITERATIONS 
       AND A TOTAL OF          5 INNER ITERATIONS.
    ------------------------------------------------

 NO OUTPUT CONTROL FOR STRESS PERIOD   28   TIME STEP    7
 
 SOLVING FOR HEAD 
                                                   Max.-Head-Change                         Max.-Flux-Residual
  Residual-Control   Outer-Iter.   Inner-Iter.     Column Row Layer    Maximum-Head-Change  Column Row Layer    Maximum-Flux-Residual          L2-NORM 
          0                 1           2             4    7     1       0.8045671598E-02       4    7    1         0.4213645470E+00      0.1170783118E+01
          0                 2           2             4    7     1      -0.7826339073E-03       4    7    1        -0.4213653502E-01      0.1182596790E+00
          0                 3           1             4    7     1       0.5329445677E-04       4    7    1         0.2949557974E-02      0.8798627867E-02

    ------------------------------------------------
       NWT REQUIRED            3 OUTER ITERATIONS 
       AND A TOTAL OF          5 INNER ITERATIONS.
    ------------------------------------------------

 NO OUTPUT CONTROL FOR STRESS PERIOD   28   TIME STEP    8
 
 SOLVING FOR HEAD 
                                                   Max.-Head-Change                         Max.-Flux-Residual
  Residual-Control   Outer-Iter.   Inner-Iter.     Column Row Layer    Maximum-Head-Change  Column Row Layer    Maximum-Flux-Residual          L2-NORM 
          0                 1           2             4    7     1       0.7982451951E-02       4    7    1         0.4180343290E+00      0.1157856922E+01
          0                 2           2             4    7     1      -0.7764760735E-03       4    7    1        -0.4180351162E-01      0.1167301472E+00
          0                 3           1             4    7     1       0.5287513126E-04       4    7    1         0.2926246326E-02      0.8592851534E-02

    ------------------------------------------------
       NWT REQUIRED            3 OUTER ITERATIONS 
       AND A TOTAL OF          5 INNER ITERATIONS.
    ------------------------------------------------

 NO OUTPUT CONTROL FOR STRESS PERIOD   28   TIME STEP    9
 
 SOLVING FOR HEAD 
                                                   Max.-Head-Change                         Max.-Flux-Residual
  Residual-Control   Outer-Iter.   Inner-Iter.     Column Row Layer    Maximum-Head-Change  Column Row Layer    Maximum-Flux-Residual          L2-NORM 
          0                 1           2             4    7     1       0.7920233946E-02       4    7    1         0.4147569051E+00      0.1146032502E+01
          0                 2           2             4    7     1      -0.7704239355E-03       4    7    1        -0.4147576769E-01      0.1153582583E+00
          0                 3           1             4    7     1       0.5246300334E-04       4    7    1         0.2903304255E-02      0.8416382991E-02

    ------------------------------------------------
       NWT REQUIRED            3 OUTER ITERATIONS 
       AND A TOTAL OF          5 INNER ITERATIONS.
    ------------------------------------------------

 NO OUTPUT CONTROL FOR STRESS PERIOD   28   TIME STEP   10
 
 SOLVING FOR HEAD 
                                                   Max.-Head-Change                         Max.-Flux-Residual
  Residual-Control   Outer-Iter.   Inner-Iter.     Column Row Layer    Maximum-Head-Change  Column Row Layer    Maximum-Flux-Residual          L2-NORM 
          0                 1           2             4    7     1       0.7858845310E-02       4    7    1         0.4115236346E+00      0.1135132652E+01
          0                 2           2             4    7     1      -0.7644524725E-03       4    7    1        -0.4115243911E-01      0.1141182782E+00
          0                 3           1             4    7     1       0.5205636931E-04       4    7    1         0.2880671266E-02      0.8263431057E-02

    ------------------------------------------------
       NWT REQUIRED            3 OUTER ITERATIONS 
       AND A TOTAL OF          5 INNER ITERATIONS.
    ------------------------------------------------

 NO OUTPUT CONTROL FOR STRESS PERIOD   28   TIME STEP   11
 
 SOLVING FOR HEAD 
                                                   Max.-Head-Change                         Max.-Flux-Residual
  Residual-Control   Outer-Iter.   Inner-Iter.     Column Row Layer    Maximum-Head-Change  Column Row Layer    Maximum-Flux-Residual          L2-NORM 
          0                 1           2             4    7     1       0.7798268462E-02       4    7    1         0.4083333656E+00      0.1125004898E+01
          0                 2           2             4    7     1      -0.7585599752E-03       4    7    1        -0.4083341074E-01      0.1129849274E+00
          0                 3           1             4    7     1       0.5165511226E-04       4    7    1         0.2858339279E-02      0.8130927863E-02

    ------------------------------------------------
       NWT REQUIRED            3 OUTER ITERATIONS 
       AND A TOTAL OF          5 INNER ITERATIONS.
    ------------------------------------------------

 NO OUTPUT CONTROL FOR STRESS PERIOD   28   TIME STEP   12
 
 SOLVING FOR HEAD 
                                                   Max.-Head-Change                         Max.-Flux-Residual
  Residual-Control   Outer-Iter.   Inner-Iter.     Column Row Layer    Maximum-Head-Change  Column Row Layer    Maximum-Flux-Residual          L2-NORM 
          0                 1           2             4    7     1       0.7738624808E-02       4    7    1         0.4051925283E+00      0.1115536771E+01
          0                 2           2             4    7     1      -0.7527582530E-03       4    7    1        -0.4051932559E-01      0.1119418865E+00
          0                 3           1             4    7     1       0.5126003723E-04       4    7    1         0.2836353328E-02      0.8015311153E-02

    ------------------------------------------------
       NWT REQUIRED            3 OUTER ITERATIONS 
       AND A TOTAL OF          5 INNER ITERATIONS.
    ------------------------------------------------

 NO OUTPUT CONTROL FOR STRESS PERIOD   28   TIME STEP   13
 
 SOLVING FOR HEAD 
                                                   Max.-Head-Change                         Max.-Flux-Residual
  Residual-Control   Outer-Iter.   Inner-Iter.     Column Row Layer    Maximum-Head-Change  Column Row Layer    Maximum-Flux-Residual          L2-NORM 
          0                 1           2             4    7     1       0.7679616644E-02       4    7    1         0.4020853922E+00      0.1106613858E+01
          0                 2           2             4    7     1      -0.7470183469E-03       4    7    1        -0.4020861058E-01      0.1109733201E+00
          0                 3           1             4    7     1       0.5086917097E-04       4    7    1         0.2814603279E-02      0.7913613201E-02

    ------------------------------------------------
       NWT REQUIRED            3 OUTER ITERATIONS 
       AND A TOTAL OF          5 INNER ITERATIONS.
    ------------------------------------------------

 NO OUTPUT CONTROL FOR STRESS PERIOD   28   TIME STEP   14
 
 SOLVING FOR HEAD 
                                                   Max.-Head-Change                         Max.-Flux-Residual
  Residual-Control   Outer-Iter.   Inner-Iter.     Column Row Layer    Maximum-Head-Change  Column Row Layer    Maximum-Flux-Residual          L2-NORM 
          0                 1           2             4    7     1       0.7621369396E-02       4    7    1         0.3990185471E+00      0.1098164708E+01
          0                 2           2             4    7     1      -0.7413524579E-03       4    7    1        -0.3990192471E-01      0.1100674569E+00
          0                 3           1             4    7     1       0.5048334526E-04       4    7    1         0.2793135276E-02      0.7822605196E-02

    ------------------------------------------------
       NWT REQUIRED            3 OUTER ITERATIONS 
       AND A TOTAL OF          5 INNER ITERATIONS.
    ------------------------------------------------

 NO OUTPUT CONTROL FOR STRESS PERIOD   28   TIME STEP   15
 
 SOLVING FOR HEAD 
                                                   Max.-Head-Change                         Max.-Flux-Residual
  Residual-Control   Outer-Iter.   Inner-Iter.     Column Row Layer    Maximum-Head-Change  Column Row Layer    Maximum-Flux-Residual          L2-NORM 
          0                 1           2             4    7     1       0.7564003503E-02       4    7    1         0.3959984964E+00      0.1090122974E+01
          0                 2           2             4    7     1      -0.7357723010E-03       4    7    1        -0.3959991830E-01      0.1092127719E+00
          0                 3           1             4    7     1       0.5010335756E-04       4    7    1         0.2771994837E-02      0.7739668166E-02

    ------------------------------------------------
       NWT REQUIRED            3 OUTER ITERATIONS 
       AND A TOTAL OF          5 INNER ITERATIONS.
    ------------------------------------------------

 NO OUTPUT CONTROL FOR STRESS PERIOD   28   TIME STEP   16
 
 SOLVING FOR HEAD 
                                                   Max.-Head-Change                         Max.-Flux-Residual
  Residual-Control   Outer-Iter.   Inner-Iter.     Column Row Layer    Maximum-Head-Change  Column Row Layer    Maximum-Flux-Residual          L2-NORM 
          0                 1           2             4    7     1       0.7507359075E-02       4    7    1         0.3930168007E+00      0.1082427216E+01
          0                 2           2             4    7     1      -0.7302623232E-03       4    7    1        -0.3930174744E-01      0.1084036439E+00
          0                 3           1             4    7     1       0.4972814830E-04       4    7    1         0.2751122851E-02      0.7665272688E-02

    ------------------------------------------------
       NWT REQUIRED            3 OUTER ITERATIONS 
       AND A TOTAL OF          5 INNER ITERATIONS.
    ------------------------------------------------

 NO OUTPUT CONTROL FOR STRESS PERIOD   28   TIME STEP   17
 
 SOLVING FOR HEAD 
                                                   Max.-Head-Change                         Max.-Flux-Residual
  Residual-Control   Outer-Iter.   Inner-Iter.     Column Row Layer    Maximum-Head-Change  Column Row Layer    Maximum-Flux-Residual          L2-NORM 
          0                 1           2             4    7     1       0.7451291709E-02       4    7    1         0.3900651694E+00      0.1075037480E+01
          0                 2           2             4    7     1      -0.7248084789E-03       4    7    1        -0.3900658305E-01      0.1076334859E+00
          0                 3           1             4    7     1       0.4935676214E-04       4    7    1         0.2730461362E-02      0.7596907098E-02

    ------------------------------------------------
       NWT REQUIRED            3 OUTER ITERATIONS 
       AND A TOTAL OF          5 INNER ITERATIONS.
    ------------------------------------------------

 NO OUTPUT CONTROL FOR STRESS PERIOD   28   TIME STEP   18
 
 SOLVING FOR HEAD 
                                                   Max.-Head-Change                         Max.-Flux-Residual
  Residual-Control   Outer-Iter.   Inner-Iter.     Column Row Layer    Maximum-Head-Change  Column Row Layer    Maximum-Flux-Residual          L2-NORM 
          0                 1           2             4    7     1       0.7396058515E-02       4    7    1         0.3871581426E+00      0.1067910106E+01
          0                 2           2             4    7     1      -0.7194357769E-03       4    7    1        -0.3871587914E-01      0.1068954620E+00
          0                 3           1             4    7     1       0.4899090112E-04       4    7    1         0.2710112096E-02      0.7533095147E-02

    ------------------------------------------------
       NWT REQUIRED            3 OUTER ITERATIONS 
       AND A TOTAL OF          5 INNER ITERATIONS.
    ------------------------------------------------

 NO OUTPUT CONTROL FOR STRESS PERIOD   28   TIME STEP   19
 
 SOLVING FOR HEAD 
                                                   Max.-Head-Change                         Max.-Flux-Residual
  Residual-Control   Outer-Iter.   Inner-Iter.     Column Row Layer    Maximum-Head-Change  Column Row Layer    Maximum-Flux-Residual          L2-NORM 
          0                 1           2             4    7     1       0.7341638910E-02       4    7    1         0.3842943667E+00      0.1061024935E+01
          0                 2           2             4    7     1      -0.7141422156E-03       4    7    1        -0.3842950035E-01      0.1061867312E+00
          0                 3           1             4    7     1       0.4863042962E-04       4    7    1         0.2690065593E-02      0.7474528436E-02

    ------------------------------------------------
       NWT REQUIRED            3 OUTER ITERATIONS 
       AND A TOTAL OF          5 INNER ITERATIONS.
    ------------------------------------------------

 NO OUTPUT CONTROL FOR STRESS PERIOD   28   TIME STEP   20
 
 SOLVING FOR HEAD 
                                                   Max.-Head-Change                         Max.-Flux-Residual
  Residual-Control   Outer-Iter.   Inner-Iter.     Column Row Layer    Maximum-Head-Change  Column Row Layer    Maximum-Flux-Residual          L2-NORM 
          0                 1           2             4    7     1       0.7287744486E-02       4    7    1         0.3814580888E+00      0.1054346910E+01
          0                 2           2             4    7     1      -0.7088997400E-03       4    7    1        -0.3814587139E-01      0.1055025674E+00
          0                 3           1             4    7     1       0.4827343651E-04       4    7    1         0.2670211547E-02      0.7418630508E-02

    ------------------------------------------------
       NWT REQUIRED            3 OUTER ITERATIONS 
       AND A TOTAL OF          5 INNER ITERATIONS.
    ------------------------------------------------

 NO OUTPUT CONTROL FOR STRESS PERIOD   28   TIME STEP   21
 
 SOLVING FOR HEAD 
                                                   Max.-Head-Change                         Max.-Flux-Residual
  Residual-Control   Outer-Iter.   Inner-Iter.     Column Row Layer    Maximum-Head-Change  Column Row Layer    Maximum-Flux-Residual          L2-NORM 
          0                 1           2             4    7     1       0.7234638304E-02       4    7    1         0.3786637263E+00      0.1047857298E+01
          0                 2           2             4    7     1      -0.7037339398E-03       4    7    1        -0.3786643399E-01      0.1048407154E+00
          0                 3           1             4    7     1       0.4792166524E-04       4    7    1         0.2650650947E-02      0.7366219994E-02

    ------------------------------------------------
       NWT REQUIRED            3 OUTER ITERATIONS 
       AND A TOTAL OF          5 INNER ITERATIONS.
    ------------------------------------------------

 NO OUTPUT CONTROL FOR STRESS PERIOD   28   TIME STEP   22
 
 SOLVING FOR HEAD 
                                                   Max.-Head-Change                         Max.-Flux-Residual
  Residual-Control   Outer-Iter.   Inner-Iter.     Column Row Layer    Maximum-Head-Change  Column Row Layer    Maximum-Flux-Residual          L2-NORM 
          0                 1           2             4    7     1       0.7182031676E-02       4    7    1         0.3758955472E+00      0.1041535718E+01
          0                 2           2             4    7     1      -0.6986167329E-03       4    7    1        -0.3758961495E-01      0.1041981662E+00
          0                 3           1             4    7     1       0.4757320254E-04       4    7    1         0.2631273617E-02      0.7316295613E-02

    ------------------------------------------------
       NWT REQUIRED            3 OUTER ITERATIONS 
       AND A TOTAL OF          5 INNER ITERATIONS.
    ------------------------------------------------

 NO OUTPUT CONTROL FOR STRESS PERIOD   28   TIME STEP   23
 
 SOLVING FOR HEAD 
                                                   Max.-Head-Change                         Max.-Flux-Residual
  Residual-Control   Outer-Iter.   Inner-Iter.     Column Row Layer    Maximum-Head-Change  Column Row Layer    Maximum-Flux-Residual          L2-NORM 
          0                 1           2             4    7     1       0.7130185122E-02       4    7    1         0.3731679552E+00      0.1035370976E+01
          0                 2           2             4    7     1      -0.6935734607E-03       4    7    1        -0.3731685466E-01      0.1035732004E+00
          0                 3           1             4    7     1       0.4722977436E-04       4    7    1         0.2612180400E-02      0.7268485612E-02

    ------------------------------------------------
       NWT REQUIRED            3 OUTER ITERATIONS 
       AND A TOTAL OF          5 INNER ITERATIONS.
    ------------------------------------------------

 NO OUTPUT CONTROL FOR STRESS PERIOD   28   TIME STEP   24
 
 SOLVING FOR HEAD 
                                                   Max.-Head-Change                         Max.-Flux-Residual
  Residual-Control   Outer-Iter.   Inner-Iter.     Column Row Layer    Maximum-Head-Change  Column Row Layer    Maximum-Flux-Residual          L2-NORM 
          0                 1           2             4    7     1       0.7079082300E-02       4    7    1         0.3704797719E+00      0.1029346726E+01
          0                 2           2             4    7     1      -0.6886025338E-03       4    7    1        -0.3704803528E-01      0.1029639972E+00
          0                 3           1             4    7     1       0.4689127289E-04       4    7    1         0.2593363038E-02      0.7222490274E-02

    ------------------------------------------------
       NWT REQUIRED            3 OUTER ITERATIONS 
       AND A TOTAL OF          5 INNER ITERATIONS.
    ------------------------------------------------

 NO OUTPUT CONTROL FOR STRESS PERIOD   28   TIME STEP   25
 
 SOLVING FOR HEAD 
                                                   Max.-Head-Change                         Max.-Flux-Residual
  Residual-Control   Outer-Iter.   Inner-Iter.     Column Row Layer    Maximum-Head-Change  Column Row Layer    Maximum-Flux-Residual          L2-NORM 
          0                 1           2             4    7     1       0.7028435580E-02       4    7    1         0.3678154638E+00      0.1023449797E+01
          0                 2           2             4    7     1      -0.6836759732E-03       4    7    1        -0.3678160341E-01      0.1023688521E+00
          0                 3           1             4    7     1       0.4655579255E-04       4    7    1         0.2574712813E-02      0.7178396732E-02

    ------------------------------------------------
       NWT REQUIRED            3 OUTER ITERATIONS 
       AND A TOTAL OF          5 INNER ITERATIONS.
    ------------------------------------------------

 NO OUTPUT CONTROL FOR STRESS PERIOD   28   TIME STEP   26
 
 SOLVING FOR HEAD 
                                                   Max.-Head-Change                         Max.-Flux-Residual
  Residual-Control   Outer-Iter.   Inner-Iter.     Column Row Layer    Maximum-Head-Change  Column Row Layer    Maximum-Flux-Residual          L2-NORM 
          0                 1           2             4    7     1       0.6978513859E-02       4    7    1         0.3651894904E+00      0.1017680978E+01
          0                 2           2             4    7     1      -0.6788199365E-03       4    7    1        -0.3651900507E-01      0.1017876563E+00
          0                 3           1             4    7     1       0.4622511431E-04       4    7    1         0.2556330935E-02      0.7135496522E-02

    ------------------------------------------------
       NWT REQUIRED            3 OUTER ITERATIONS 
       AND A TOTAL OF          5 INNER ITERATIONS.
    ------------------------------------------------

 NO OUTPUT CONTROL FOR STRESS PERIOD   28   TIME STEP   27
 
 SOLVING FOR HEAD 
                                                   Max.-Head-Change                         Max.-Flux-Residual
  Residual-Control   Outer-Iter.   Inner-Iter.     Column Row Layer    Maximum-Head-Change  Column Row Layer    Maximum-Flux-Residual          L2-NORM 
          0                 1           2             4    7     1       0.6929161432E-02       4    7    1         0.3625937639E+00      0.1012021436E+01
          0                 2           2             4    7     1      -0.6740192758E-03       4    7    1        -0.3625943141E-01      0.1012181884E+00
          0                 3           1             4    7     1       0.4589820722E-04       4    7    1         0.2538160764E-02      0.7093764633E-02

    ------------------------------------------------
       NWT REQUIRED            3 OUTER ITERATIONS 
       AND A TOTAL OF          5 INNER ITERATIONS.
    ------------------------------------------------

 NO OUTPUT CONTROL FOR STRESS PERIOD   28   TIME STEP   28
 
 SOLVING FOR HEAD 
                                                   Max.-Head-Change                         Max.-Flux-Residual
  Residual-Control   Outer-Iter.   Inner-Iter.     Column Row Layer    Maximum-Head-Change  Column Row Layer    Maximum-Flux-Residual          L2-NORM 
          0                 1           2             4    7     1       0.6880365947E-02       4    7    1         0.3600275543E+00      0.1006461996E+01
          0                 2           2             4    7     1      -0.6692727920E-03       4    7    1        -0.3600280951E-01      0.1006592830E+00
          0                 3           1             4    7     1       0.4557498987E-04       4    7    1         0.2520197254E-02      0.7053170849E-02

    ------------------------------------------------
       NWT REQUIRED            3 OUTER ITERATIONS 
       AND A TOTAL OF          5 INNER ITERATIONS.
    ------------------------------------------------

 NO OUTPUT CONTROL FOR STRESS PERIOD   28   TIME STEP   29
 
 SOLVING FOR HEAD 
                                                   Max.-Head-Change                         Max.-Flux-Residual
  Residual-Control   Outer-Iter.   Inner-Iter.     Column Row Layer    Maximum-Head-Change  Column Row Layer    Maximum-Flux-Residual          L2-NORM 
          0                 1           2             4    7     1       0.6832254242E-02       4    7    1         0.3574975650E+00      0.1001005831E+01
          0                 2           2             4    7     1      -0.6645928207E-03       4    7    1        -0.3574980963E-01      0.1001113513E+00
          0                 3           1             4    7     1       0.4525630115E-04       4    7    1         0.2502487250E-02      0.7013636299E-02

    ------------------------------------------------
       NWT REQUIRED            3 OUTER ITERATIONS 
       AND A TOTAL OF          5 INNER ITERATIONS.
    ------------------------------------------------

 NO OUTPUT CONTROL FOR STRESS PERIOD   28   TIME STEP   30



 STREAM LISTING     PERIOD     28   STEP       30

 LAYER ROW COL. STREAM  RCH.  FLOW INTO     FLOW TO   FLOW OUT OF   OVRLND.     DIRECT     STREAM       STREAM     STREAM     STREAM   STREAMBED  STREAMBED
                SEG.NO.  NO.  STRM. RCH.    AQUIFER    STRM. RCH.    RUNOFF     PRECIP       ET          HEAD       DEPTH      WIDTH   CONDCTNC.   GRADIENT

   1    1    1     1     1    2.8874E+01  2.6239E-01   2.8612E+01  0.000E+00  0.000E+00  0.000E+00  1.09428E+03  1.233E+00  1.377E+01  6.198E-02  1.411E+00
   1    2    2     1     2    2.8612E+01  4.0592E-01   2.8206E+01  0.000E+00  0.000E+00  0.000E+00  1.08929E+03  1.229E+00  1.371E+01  9.599E-02  1.410E+00
   1    3    3     1     3    2.8206E+01  3.4575E-01   2.7860E+01  0.000E+00  0.000E+00  0.000E+00  1.08364E+03  1.224E+00  1.364E+01  8.186E-02  1.408E+00
   1    3    4     1     4    2.7860E+01  3.1803E-01   2.7542E+01  0.000E+00  0.000E+00  0.000E+00  1.07863E+03  1.219E+00  1.358E+01  7.538E-02  1.406E+00
   1    4    5     2     1    2.5542E+01  3.2904E-01   2.5213E+01  0.000E+00  0.000E+00  0.000E+00  1.07315E+03  1.218E+00  1.200E+01  7.800E-02  1.406E+00
   1    5    6     2     2    2.5213E+01  2.5260E-01   2.4960E+01  0.000E+00  0.000E+00  0.000E+00  1.06772E+03  1.210E+00  1.200E+01  6.000E-02  1.403E+00
   1    6    6     2     3    2.4960E+01  2.5217E-01   2.4708E+01  0.000E+00  0.000E+00  0.000E+00  1.06300E+03  1.203E+00  1.200E+01  6.000E-02  1.401E+00
   1    7    6     2     4    2.4708E+01  2.5172E-01   2.4457E+01  0.000E+00  0.000E+00  0.000E+00  1.05827E+03  1.195E+00  1.200E+01  6.000E-02  1.398E+00
   1    8    6     2     5    2.4457E+01  2.5128E-01   2.4205E+01  0.000E+00  0.000E+00  0.000E+00  1.05355E+03  1.188E+00  1.200E+01  6.000E-02  1.396E+00
   1    3    5     3     1    2.0000E+00  2.8252E-01   1.7175E+00  0.000E+00  0.000E+00  0.000E+00  1.07555E+03  1.909E+00  9.636E+00  7.227E-02  1.955E+00
   1    3    6     3     2    1.7175E+00  2.4905E-01   1.4684E+00  0.000E+00  0.000E+00  0.000E+00  1.07264E+03  1.727E+00  8.909E+00  6.682E-02  1.864E+00
   1    3    7     3     3    1.4684E+00  1.9718E-01   1.2712E+00  0.000E+00  0.000E+00  0.000E+00  1.06987E+03  1.555E+00  8.218E+00  5.547E-02  1.777E+00
   1    4    8     3     4    1.2712E+00  2.2567E-01   1.0456E+00  0.000E+00  0.000E+00  0.000E+00  1.06682E+03  1.364E+00  7.455E+00  6.709E-02  1.682E+00
   1    5    8     3     5    1.0456E+00  1.5790E-01   8.8768E-01  0.000E+00  0.000E+00  0.000E+00  1.06362E+03  1.164E+00  6.655E+00  4.991E-02  1.582E+00
   1    6    8     3     6    8.8768E-01  5.5980E-02   8.3170E-01  0.000E+00  0.000E+00  0.000E+00  1.06158E+03  1.036E+00  6.145E+00  1.844E-02  1.518E+00
   1    5   10     4     1    1.0000E+01  9.0919E-02   9.9091E+00  0.000E+00  0.000E+00  0.000E+00  1.07836E+03  6.368E-01  1.000E+01  2.500E-02  1.212E+00
   1    5    9     4     2    9.9091E+00  1.8158E-01   9.7275E+00  0.000E+00  0.000E+00  0.000E+00  1.07154E+03  6.315E-01  1.000E+01  5.000E-02  1.211E+00
   1    6    8     4     3    9.7275E+00  1.2689E-01   9.6006E+00  0.000E+00  0.000E+00  0.000E+00  1.06381E+03  6.256E-01  1.000E+01  3.500E-02  1.209E+00
   1    6    8     5     1    1.0432E+01  2.2686E-01   1.0205E+01  0.000E+00  0.000E+00  0.000E+00  1.05868E+03  6.790E-01  1.542E+01  6.166E-02  1.226E+00
   1    7    7     5     2    1.0205E+01  2.7894E-01   9.9265E+00  0.000E+00  0.000E+00  0.000E+00  1.05417E+03  6.732E-01  1.519E+01  7.594E-02  1.224E+00
   1    8    7     5     3    9.9265E+00  1.9221E-01   9.7343E+00  0.000E+00  0.000E+00  0.000E+00  1.04992E+03  6.676E-01  1.497E+01  5.241E-02  1.223E+00
   1    8    6     5     4    9.7343E+00  1.3577E-01   9.5985E+00  0.000E+00  0.000E+00  0.000E+00  1.04691E+03  6.637E-01  1.482E+01  3.706E-02  1.221E+00
   1    9    6     6     1    3.3804E+01  2.6759E-01   3.3536E+01  0.000E+00  0.000E+00  0.000E+00  1.04419E+03  1.460E+00  1.200E+01  6.000E-02  1.487E+00
   1   10    7     6     2    3.3536E+01  2.6717E-01   3.3269E+01  0.000E+00  0.000E+00  0.000E+00  1.03963E+03  1.453E+00  1.200E+01  6.000E-02  1.484E+00
   1   11    7     6     3    3.3269E+01  2.6676E-01   3.3002E+01  0.000E+00  0.000E+00  0.000E+00  1.03508E+03  1.446E+00  1.200E+01  6.000E-02  1.482E+00
   1   12    7     6     4    3.3002E+01  2.6634E-01   3.2736E+01  0.000E+00  0.000E+00  0.000E+00  1.03053E+03  1.439E+00  1.200E+01  6.000E-02  1.480E+00
   1   13    7     6     5    3.2736E+01  1.4995E-02   3.2721E+01  0.000E+00  0.000E+00  0.000E+00  1.02734E+03  1.435E+00  1.200E+01  2.400E-02  2.083E-01
   1   14    9     7     1    1.5000E+02  1.3772E+00   1.4862E+02  0.000E+00  0.000E+00  0.000E+00  1.03987E+03  2.288E+00  5.529E+01  5.593E-01  8.208E-01
   1   13    8     7     2    1.4862E+02  1.9534E+00   1.4667E+02  0.000E+00  0.000E+00  0.000E+00  1.03478E+03  2.279E+00  5.525E+01  6.147E-01  1.059E+00
   1   13    7     7     3    1.4667E+02  1.6578E+00   1.4501E+02  0.000E+00  0.000E+00  0.000E+00  1.02969E+03  2.269E+00  5.521E+01  5.584E-01  9.896E-01
   1   13    6     8     1    1.7773E+02  1.1350E+00   1.7660E+02  0.000E+00  0.000E+00  0.000E+00  1.02487E+03  2.998E+00  4.347E+01  4.430E-01  8.540E-01
   1   13    5     8     2    1.7660E+02  3.5494E-01   1.7624E+02  0.000E+00  0.000E+00  0.000E+00  1.01862E+03  2.994E+00  4.341E+01  4.423E-01  2.675E-01
   1   13    4     8     3    1.7624E+02 -1.9064E+00   1.7815E+02  0.000E+00  0.000E+00  0.000E+00  1.01237E+03  2.998E+00  4.348E+01  4.431E+00 -1.434E-01
   1   13    3     8     4    1.7815E+02 -3.3982E+00   1.8155E+02  0.000E+00  0.000E+00  0.000E+00  1.00614E+03  3.015E+00  4.372E+01  4.455E+00 -2.542E-01
   1   13    2     8     5    1.8155E+02 -2.4708E+00   1.8402E+02  0.000E+00  0.000E+00  0.000E+00  9.99909E+02  3.034E+00  4.399E+01  4.482E+00 -1.837E-01
   1   13    1     8     6    1.8402E+02 -1.9160E+00   1.8593E+02  0.000E+00  0.000E+00  0.000E+00  9.94922E+02  3.047E+00  4.418E+01  2.701E+00 -2.364E-01
   1    8    6     9     1    0.0000E+00  0.0000E+00   0.0000E+00  0.000E+00  0.000E+00  0.000E+00  1.07875E+03  0.000E+00  4.000E+00  0.000E+00  1.000E+00
   1    8    5     9     2    0.0000E+00  0.0000E+00   0.0000E+00  0.000E+00  0.000E+00  0.000E+00  1.07825E+03  0.000E+00  4.000E+00  0.000E+00  1.000E+00





UNSATURATED ZONE PACKAGE VOLUMETRIC BUDGET FOR  TIME STEP    30 STRESS PERIOD   28
  ------------------------------------------------------------------------------



     CUMULATIVE VOLUMES      L**3       RATES FOR THIS TIME STEP      L**3/T
     ------------------                 ------------------------

           IN:                                      IN:
           ---                                      ---
        INFILTRATION =  1112086625.4280          INFILTRATION =           4.4075

          OUT:                                     OUT:
          ----                                     ----
              UZF ET =  1003434488.5741                UZF ET =           0.7250
        UZF RECHARGE =      586931.1083          UZF RECHARGE =           0.0900

            IN - OUT =   108065205.7455              IN - OUT =           3.5925

          STORAGE:                                 STORAGE:
          --------                                 --------
      STORAGE CHANGE =   108065190.7039        STORAGE CHANGE =           3.5925

 PERCENT DISCREPANCY IS DIFFERENCE BETWEEN IN-OUT MINUS CHANGE IN STORAGE
 DIVIDED BY THE AVERAGE OF IN AND OUT TIMES 100

 PERCENT DISCREPANCY =           0.00     PERCENT DISCREPANCY =           0.00






1
  VOLUMETRIC BUDGET FOR AGRICULTURAL FIELDS AT  END OF TIME STEP   30, STRESS PERIOD  28
  ------------------------------------------------------------------------------

     CUMULATIVE VOLUMES      L**3       RATES FOR THIS TIME STEP      L**3/T
     ------------------                 ------------------------

           IN:                                      IN:
           ---                                      ---
               AG WELLS  =   419684928.0000                 AG WELLS  =           0.0000
      DIVERSION SEGMENTS =   379344352.0000        DIVERSION SEGMENTS =           0.0000
           GW IRRIGATION =           0.0000             GW IRRIGATION =           0.0000
           SW IRRIGATION =           0.0000             SW IRRIGATION =           0.0000
        SYSTEM LOSSES GW =           0.0000          SYSTEM LOSSES GW =           0.0000
        SYSTEM LOSSES SW =           0.0000          SYSTEM LOSSES SW =           0.0000

                TOTAL IN =   799029248.0000                  TOTAL IN =           0.0000

          OUT:                                     OUT:
          ----                                     ----
               AG WELLS  =           0.0000                 AG WELLS  =           0.0000
      DIVERSION SEGMENTS =           0.0000        DIVERSION SEGMENTS =           0.0000
           GW IRRIGATION =   419684928.0000             GW IRRIGATION =           0.0000
           SW IRRIGATION =   379352160.0000             SW IRRIGATION =           0.0000
        SYSTEM LOSSES GW =           0.0000          SYSTEM LOSSES GW =           0.0000
        SYSTEM LOSSES SW =           0.0000          SYSTEM LOSSES SW =           0.0000

               TOTAL OUT =   799037056.0000                 TOTAL OUT =           0.0000

                IN - OUT =       -7808.0000                  IN - OUT =           0.0000

     PERCENT DISCREPANCY =          -0.00         PERCENT DISCREPANCY =           0.00



1
  VOLUMETRIC BUDGET FOR ENTIRE MODEL AT END OF TIME STEP   30, STRESS PERIOD  28
  ------------------------------------------------------------------------------

     CUMULATIVE VOLUMES      L**3       RATES FOR THIS TIME STEP      L**3/T
     ------------------                 ------------------------

           IN:                                      IN:
           ---                                      ---
             STORAGE     =   623826496.0000               STORAGE     =           1.7569
       CONSTANT HEAD     =           0.0000         CONSTANT HEAD     =           0.0000
     HEAD DEP BOUNDS     =    20484394.0000       HEAD DEP BOUNDS     =           0.2886
      STREAM LEAKAGE     =   832904192.0000        STREAM LEAKAGE     =          12.6316
        UZF RECHARGE     =      586931.1250          UZF RECHARGE     =       8.9963E-02
               GW ET     =           0.0000                 GW ET     =           0.0000
     SURFACE LEAKAGE     =           0.0000       SURFACE LEAKAGE     =           0.0000
           AG WELLS      =           0.0000             AG WELLS      =           0.0000

                TOTAL IN =  1477801984.0000                  TOTAL IN =          14.7670

          OUT:                                     OUT:
          ----                                     ----
             STORAGE     =   313025952.0000               STORAGE     =           4.7863
       CONSTANT HEAD     =           0.0000         CONSTANT HEAD     =           0.0000
     HEAD DEP BOUNDS     =    20466564.0000       HEAD DEP BOUNDS     =           0.2900
      STREAM LEAKAGE     =   724589888.0000        STREAM LEAKAGE     =           9.6914
        UZF RECHARGE     =           0.0000          UZF RECHARGE     =           0.0000
               GW ET     =           0.0000                 GW ET     =           0.0000
     SURFACE LEAKAGE     =           0.0000       SURFACE LEAKAGE     =           0.0000
           AG WELLS      =   419684928.0000             AG WELLS      =           0.0000

               TOTAL OUT =  1477767424.0000                 TOTAL OUT =          14.7678

                IN - OUT =       34560.0000                  IN - OUT =      -7.9060E-04

     PERCENT DISCREPANCY =           0.00         PERCENT DISCREPANCY =          -0.01






         TIME SUMMARY AT END OF TIME STEP   30 IN STRESS PERIOD   28
                    SECONDS     MINUTES      HOURS       DAYS        YEARS
                    -----------------------------------------------------------
   TIME STEP LENGTH  87667.      1461.1      24.352      1.0147     2.77799E-03
 STRESS PERIOD TIME 2.63000E+06  43833.      730.56      30.440     8.33397E-02
         TOTAL TIME 7.10967E+07 1.18494E+06  19749.      822.88      2.2529    
1
1
                            STRESS PERIOD NO.   29, LENGTH =   2630000.    
                            -----------------------------------------------

                              NUMBER OF TIME STEPS =    30

                               MULTIPLIER FOR DELT =     1.000

                            INITIAL TIME STEP SIZE =   87666.66    

 REUSING NON-PARAMETER GHB CELLS FROM LAST STRESS PERIOD

      2 GHB CELLS

 REUSING STREAM SEGMENT DATA FROM LAST STRESS PERIOD



            AREAL INFILTRATION RATE
 READING ON UNIT   19 WITH FORMAT: (10F4.0)            

            1           2           3           4           5           6           7           8           9          10
 ........................................................................................................................
   1   1.2000E-09   0.000       0.000       0.000       0.000       0.000       0.000       0.000       0.000       0.000    
   2   2.1000E-09  2.0000E-09  8.0000E-10  8.5000E-09   0.000       0.000       0.000       0.000       0.000       0.000    
   3   5.0000E-10  1.1000E-09  8.8000E-09  5.5000E-09   0.000       0.000       0.000       0.000       0.000       0.000    
   4   8.5000E-09  1.1000E-09  1.1000E-09  1.1000E-09  2.0000E-09   0.000       0.000       0.000       0.000       0.000    
   5   8.5000E-09  1.1000E-09  1.1000E-09  1.1000E-09  1.1000E-09   0.000       0.000       0.000       0.000       0.000    
   6   8.5000E-09  5.2000E-09  2.1000E-09  1.1000E-09  1.5000E-09   0.000       0.000       0.000       0.000       0.000    
   7   8.5000E-09  5.2000E-09  2.1000E-09  1.2000E-09  2.0000E-09   0.000       0.000       0.000       0.000       0.000    
   8   5.0000E-10  5.2000E-09  2.1000E-09  1.2000E-09  5.0000E-09   0.000       0.000       0.000       0.000       0.000    
   9   5.0000E-10  5.2000E-09  2.1000E-09  1.2000E-09  5.0000E-09   0.000       0.000       0.000       0.000       0.000    
  10   5.0000E-10  5.2000E-09  2.1000E-09  1.2000E-09  5.8000E-09   0.000       0.000       0.000       0.000       0.000    
  11   1.0000E-10  1.1000E-09  1.1000E-09  1.2000E-09  5.0000E-09   0.000       0.000       0.000       0.000       0.000    
  12   1.1000E-09  1.1000E-09  1.1000E-09  1.1000E-09  2.0000E-09   0.000       0.000       0.000       0.000       0.000    
  13   1.1000E-09  2.2000E-09  2.2000E-09  2.1000E-09  1.0000E-09   0.000       0.000       0.000       0.000       0.000    
  14   2.0000E-10  5.5000E-09  5.5000E-09  5.2000E-09  1.0000E-09   0.000       0.000       0.000       0.000       0.000    
  15    0.000      8.8000E-09  8.8000E-09   0.000       0.000       0.000       0.000       0.000       0.000       0.000    

                  ET RATE =  2.500000E-08

 USING ET EXTINCTION DEPTH FROM PREVIOUS STRESS PERIOD. CURRENT PERIOD IS:      29

 USING EXTINCTION WATER CONTENT FROM PREVIOUS STRESS PERIOD. CURRENT PERIOD IS:      29

 USING AIR ENTRY PRESSURE FROM PREVIOUS STRESS PERIOD. CURRENT PERIOD IS:      29

 USING ROOT PRESSURE HEAD FROM PREVIOUS STRESS PERIOD. CURRENT PERIOD IS:      29

 USING ROOT ACTIVITY FROM PREVIOUS STRESS PERIOD. CURRENT PERIOD IS:      29

 PROCESSING AG STRESS PERIOD DATA

 READING AG STRESS PERIOD DATA

 READING IRRIGATION SEGMENT

 READING IRRIGATION WELL

 READING SUPPLEMENTAL WELL

 END PROCESSING AG STRESS PERIOD DATA OPTIONS
 
 SOLVING FOR HEAD 
                                                   Max.-Head-Change                         Max.-Flux-Residual
  Residual-Control   Outer-Iter.   Inner-Iter.     Column Row Layer    Maximum-Head-Change  Column Row Layer    Maximum-Flux-Residual          L2-NORM 
          0                 1           2             4    7     1       0.6784539028E-02       4    7    1         0.3549883412E+00      0.9956337524E+00
          0                 2           2             4    7     1      -0.6599514175E-03       4    7    1        -0.3549888632E-01      0.9957219608E-01
          0                 3           1             4    7     1       0.4494023855E-04       4    7    1         0.2484922608E-02      0.6974882483E-02

    ------------------------------------------------
       NWT REQUIRED            3 OUTER ITERATIONS 
       AND A TOTAL OF          5 INNER ITERATIONS.
    ------------------------------------------------

 NO OUTPUT CONTROL FOR STRESS PERIOD   29   TIME STEP    1
 
 SOLVING FOR HEAD 
                                                   Max.-Head-Change                         Max.-Flux-Residual
  Residual-Control   Outer-Iter.   Inner-Iter.     Column Row Layer    Maximum-Head-Change  Column Row Layer    Maximum-Flux-Residual          L2-NORM 
          0                 1           2             4    7     1       0.6737358386E-02       4    7    1         0.3525143625E+00      0.1094570478E+01
          0                 2           2             4    7     1      -0.6553620158E-03       4    7    1        -0.3525148762E-01      0.1020528702E+00
          0                 3           1             4    7     1       0.4462771694E-04       4    7    1         0.2467604704E-02      0.7252355794E-02

    ------------------------------------------------
       NWT REQUIRED            3 OUTER ITERATIONS 
       AND A TOTAL OF          5 INNER ITERATIONS.
    ------------------------------------------------

 NO OUTPUT CONTROL FOR STRESS PERIOD   29   TIME STEP    2
 
 SOLVING FOR HEAD 
                                                   Max.-Head-Change                         Max.-Flux-Residual
  Residual-Control   Outer-Iter.   Inner-Iter.     Column Row Layer    Maximum-Head-Change  Column Row Layer    Maximum-Flux-Residual          L2-NORM 
          0                 1           2             4   13     1      -0.6936830025E-02       4   13    1        -0.3972596088E+00      0.1148802400E+01
          0                 2           2             4    7     1      -0.6508206978E-03       4    7    1        -0.3500686046E-01      0.1087024954E+00
          0                 3           1             4    7     1       0.4431847065E-04       4    7    1         0.2450480820E-02      0.7552337420E-02

    ------------------------------------------------
       NWT REQUIRED            3 OUTER ITERATIONS 
       AND A TOTAL OF          5 INNER ITERATIONS.
    ------------------------------------------------

 NO OUTPUT CONTROL FOR STRESS PERIOD   29   TIME STEP    3
 
 SOLVING FOR HEAD 
                                                   Max.-Head-Change                         Max.-Flux-Residual
  Residual-Control   Outer-Iter.   Inner-Iter.     Column Row Layer    Maximum-Head-Change  Column Row Layer    Maximum-Flux-Residual          L2-NORM 
          0                 1           2             4    7     1       0.6644203721E-02       4   13    1        -0.3647001843E+00      0.1123634454E+01
          0                 2           2             4    7     1      -0.6463005835E-03       4   13    1         0.3612308886E-01      0.1115312266E+00
          0                 3           1             4    7     1       0.4401066676E-04       4   13    1        -0.2495568105E-02      0.7731509190E-02

    ------------------------------------------------
       NWT REQUIRED            3 OUTER ITERATIONS 
       AND A TOTAL OF          5 INNER ITERATIONS.
    ------------------------------------------------

 NO OUTPUT CONTROL FOR STRESS PERIOD   29   TIME STEP    4
 
 SOLVING FOR HEAD 
                                                   Max.-Head-Change                         Max.-Flux-Residual
  Residual-Control   Outer-Iter.   Inner-Iter.     Column Row Layer    Maximum-Head-Change  Column Row Layer    Maximum-Flux-Residual          L2-NORM 
          0                 1           2             4    7     1       0.6598237284E-02       4    7    1         0.3452234435E+00      0.1095282137E+01
          0                 2           2             4    7     1      -0.6418292913E-03       4    7    1        -0.3452239337E-01      0.1088000207E+00
          0                 3           1             4    7     1       0.4370618896E-04       4    7    1         0.2416568122E-02      0.7549532681E-02

    ------------------------------------------------
       NWT REQUIRED            3 OUTER ITERATIONS 
       AND A TOTAL OF          5 INNER ITERATIONS.
    ------------------------------------------------

 NO OUTPUT CONTROL FOR STRESS PERIOD   29   TIME STEP    5
 
 SOLVING FOR HEAD 
                                                   Max.-Head-Change                         Max.-Flux-Residual
  Residual-Control   Outer-Iter.   Inner-Iter.     Column Row Layer    Maximum-Head-Change  Column Row Layer    Maximum-Flux-Residual          L2-NORM 
          0                 1           2             4    7     1       0.6552764123E-02       4    7    1         0.3428401344E+00      0.1070147223E+01
          0                 2           2             4    7     1      -0.6374059815E-03       4    7    1        -0.3428406171E-01      0.1063752443E+00
          0                 3           1             4    7     1       0.4340497797E-04       4    7    1         0.2399884901E-02      0.7387164987E-02

    ------------------------------------------------
       NWT REQUIRED            3 OUTER ITERATIONS 
       AND A TOTAL OF          5 INNER ITERATIONS.
    ------------------------------------------------

 NO OUTPUT CONTROL FOR STRESS PERIOD   29   TIME STEP    6
 
 SOLVING FOR HEAD 
                                                   Max.-Head-Change                         Max.-Flux-Residual
  Residual-Control   Outer-Iter.   Inner-Iter.     Column Row Layer    Maximum-Head-Change  Column Row Layer    Maximum-Flux-Residual          L2-NORM 
          0                 1           2             4    7     1       0.6507511199E-02       4    7    1         0.3404677122E+00      0.1047815453E+01
          0                 2           2             4    7     1      -0.6330040946E-03       4    7    1        -0.3404681873E-01      0.1042225865E+00
          0                 3           1             4    7     1       0.4310522582E-04       4    7    1         0.2383277888E-02      0.7244357205E-02

    ------------------------------------------------
       NWT REQUIRED            3 OUTER ITERATIONS 
       AND A TOTAL OF          5 INNER ITERATIONS.
    ------------------------------------------------

 NO OUTPUT CONTROL FOR STRESS PERIOD   29   TIME STEP    7
 
 SOLVING FOR HEAD 
                                                   Max.-Head-Change                         Max.-Flux-Residual
  Residual-Control   Outer-Iter.   Inner-Iter.     Column Row Layer    Maximum-Head-Change  Column Row Layer    Maximum-Flux-Residual          L2-NORM 
          0                 1           2             4    7     1       0.6462753935E-02       4    7    1         0.3381213979E+00      0.1027910535E+01
          0                 2           2             4    7     1      -0.6286504222E-03       4    7    1        -0.3381218657E-01      0.1023020213E+00
          0                 3           1             4    7     1       0.4280875729E-04       4    7    1         0.2366853636E-02      0.7116706715E-02

    ------------------------------------------------
       NWT REQUIRED            3 OUTER ITERATIONS 
       AND A TOTAL OF          5 INNER ITERATIONS.
    ------------------------------------------------

 NO OUTPUT CONTROL FOR STRESS PERIOD   29   TIME STEP    8
 
 SOLVING FOR HEAD 
                                                   Max.-Head-Change                         Max.-Flux-Residual
  Residual-Control   Outer-Iter.   Inner-Iter.     Column Row Layer    Maximum-Head-Change  Column Row Layer    Maximum-Flux-Residual          L2-NORM 
          0                 1           2             4    7     1       0.6418490846E-02       4    7    1         0.3358007831E+00      0.1010120442E+01
          0                 2           2             4    7     1      -0.6243448195E-03       4    7    1        -0.3358012433E-01      0.1005837813E+00
          0                 3           1             4    7     1       0.4251556182E-04       4    7    1         0.2350609276E-02      0.7001145143E-02

    ------------------------------------------------
       NWT REQUIRED            3 OUTER ITERATIONS 
       AND A TOTAL OF          5 INNER ITERATIONS.
    ------------------------------------------------

 NO OUTPUT CONTROL FOR STRESS PERIOD   29   TIME STEP    9
 
 SOLVING FOR HEAD 
                                                   Max.-Head-Change                         Max.-Flux-Residual
  Residual-Control   Outer-Iter.   Inner-Iter.     Column Row Layer    Maximum-Head-Change  Column Row Layer    Maximum-Flux-Residual          L2-NORM 
          0                 1           2             4    7     1       0.6374446783E-02       4    7    1         0.3334911012E+00      0.9941533484E+00
          0                 2           2             4    7     1      -0.6200605225E-03       4    7    1        -0.3334915544E-01      0.9904197477E-01
          0                 3           1             4    7     1       0.4222381717E-04       4    7    1         0.2334441456E-02      0.6899121116E-02

    ------------------------------------------------
       NWT REQUIRED            3 OUTER ITERATIONS 
       AND A TOTAL OF          5 INNER ITERATIONS.
    ------------------------------------------------

 NO OUTPUT CONTROL FOR STRESS PERIOD   29   TIME STEP   10
 
 SOLVING FOR HEAD 
                                                   Max.-Head-Change                         Max.-Flux-Residual
  Residual-Control   Outer-Iter.   Inner-Iter.     Column Row Layer    Maximum-Head-Change  Column Row Layer    Maximum-Flux-Residual          L2-NORM 
          0                 1           2             4    7     1       0.6330897548E-02       4    7    1         0.3312074651E+00      0.9797618585E+00
          0                 2           2             4    7     1      -0.6158243587E-03       4    7    1        -0.3312079110E-01      0.9764979050E-01
          0                 3           1             4    7     1       0.4193535020E-04       4    7    1         0.2318455946E-02      0.6805414530E-02

    ------------------------------------------------
       NWT REQUIRED            3 OUTER ITERATIONS 
       AND A TOTAL OF          5 INNER ITERATIONS.
    ------------------------------------------------

 NO OUTPUT CONTROL FOR STRESS PERIOD   29   TIME STEP   11
 
 SOLVING FOR HEAD 
                                                   Max.-Head-Change                         Max.-Flux-Residual
  Residual-Control   Outer-Iter.   Inner-Iter.     Column Row Layer    Maximum-Head-Change  Column Row Layer    Maximum-Flux-Residual          L2-NORM 
          0                 1           2             4    7     1       0.6287837996E-02       4    7    1         0.3289494853E+00      0.9667321241E+00
          0                 2           2             4    7     1      -0.6116358283E-03       4    7    1        -0.3289499243E-01      0.9638826679E-01
          0                 3           1             4    7     1       0.4165012707E-04       4    7    1         0.2302650047E-02      0.6721472490E-02

    ------------------------------------------------
       NWT REQUIRED            3 OUTER ITERATIONS 
       AND A TOTAL OF          5 INNER ITERATIONS.
    ------------------------------------------------

 NO OUTPUT CONTROL FOR STRESS PERIOD   29   TIME STEP   12
 
 SOLVING FOR HEAD 
                                                   Max.-Head-Change                         Max.-Flux-Residual
  Residual-Control   Outer-Iter.   Inner-Iter.     Column Row Layer    Maximum-Head-Change  Column Row Layer    Maximum-Flux-Residual          L2-NORM 
          0                 1           2             4    7     1       0.6244990297E-02       4    7    1         0.3267022048E+00      0.9548744689E+00
          0                 2           2             4    7     1      -0.6074679056E-03       4    7    1        -0.3267026370E-01      0.9523834581E-01
          0                 3           1             4    7     1       0.4136630683E-04       4    7    1         0.2286919052E-02      0.6884829584E-02

    ------------------------------------------------
       NWT REQUIRED            3 OUTER ITERATIONS 
       AND A TOTAL OF          5 INNER ITERATIONS.
    ------------------------------------------------

 NO OUTPUT CONTROL FOR STRESS PERIOD   29   TIME STEP   13
 
 SOLVING FOR HEAD 
                                                   Max.-Head-Change                         Max.-Flux-Residual
  Residual-Control   Outer-Iter.   Inner-Iter.     Column Row Layer    Maximum-Head-Change  Column Row Layer    Maximum-Flux-Residual          L2-NORM 
          0                 1           2             4    7     1       0.6202630971E-02       4    7    1         0.3244805988E+00      0.9440283108E+00
          0                 2           2             4    7     1      -0.6033474877E-03       4    7    1        -0.3244810242E-01      0.9418530945E-01
          0                 3           1             4    7     1       0.4108572203E-04       4    7    1         0.2271367732E-02      0.6573239324E-02

    ------------------------------------------------
       NWT REQUIRED            3 OUTER ITERATIONS 
       AND A TOTAL OF          5 INNER ITERATIONS.
    ------------------------------------------------

 NO OUTPUT CONTROL FOR STRESS PERIOD   29   TIME STEP   14
 
 SOLVING FOR HEAD 
                                                   Max.-Head-Change                         Max.-Flux-Residual
  Residual-Control   Outer-Iter.   Inner-Iter.     Column Row Layer    Maximum-Head-Change  Column Row Layer    Maximum-Flux-Residual          L2-NORM 
          0                 1           2             4    7     1       0.6160755480E-02       4    7    1         0.3222843144E+00      0.9340682236E+00
          0                 2           2             4    7     1      -0.5992741349E-03       4    7    1        -0.3222847334E-01      0.9321649725E-01
          0                 3           1             4    7     1       0.4080834202E-04       4    7    1         0.2255993707E-02      0.6507622266E-02

    ------------------------------------------------
       NWT REQUIRED            3 OUTER ITERATIONS 
       AND A TOTAL OF          5 INNER ITERATIONS.
    ------------------------------------------------

 NO OUTPUT CONTROL FOR STRESS PERIOD   29   TIME STEP   15
 
 SOLVING FOR HEAD 
                                                   Max.-Head-Change                         Max.-Flux-Residual
  Residual-Control   Outer-Iter.   Inner-Iter.     Column Row Layer    Maximum-Head-Change  Column Row Layer    Maximum-Flux-Residual          L2-NORM 
          0                 1           2             4    7     1       0.6119086441E-02       4    7    1         0.3200984256E+00      0.9248630014E+00
          0                 2           2             4    7     1      -0.5952208636E-03       4    7    1        -0.3200988377E-01      0.9231982134E-01
          0                 3           1             4    7     1       0.4053232962E-04       4    7    1         0.2240692451E-02      0.6447033274E-02

    ------------------------------------------------
       NWT REQUIRED            3 OUTER ITERATIONS 
       AND A TOTAL OF          5 INNER ITERATIONS.
    ------------------------------------------------

 NO OUTPUT CONTROL FOR STRESS PERIOD   29   TIME STEP   16
 
 SOLVING FOR HEAD 
                                                   Max.-Head-Change                         Max.-Flux-Residual
  Residual-Control   Outer-Iter.   Inner-Iter.     Column Row Layer    Maximum-Head-Change  Column Row Layer    Maximum-Flux-Residual          L2-NORM 
          0                 1           2             4    7     1       0.6078034157E-02       4    7    1         0.3179452773E+00      0.9163221754E+00
          0                 2           2             4    7     1      -0.5912275864E-03       4    7    1        -0.3179456831E-01      0.9148603696E-01
          0                 3           1             4    7     1       0.4026040209E-04       4    7    1         0.2225620362E-02      0.6390396708E-02

    ------------------------------------------------
       NWT REQUIRED            3 OUTER ITERATIONS 
       AND A TOTAL OF          5 INNER ITERATIONS.
    ------------------------------------------------

 NO OUTPUT CONTROL FOR STRESS PERIOD   29   TIME STEP   17
 
 SOLVING FOR HEAD 
                                                   Max.-Head-Change                         Max.-Flux-Residual
  Residual-Control   Outer-Iter.   Inner-Iter.     Column Row Layer    Maximum-Head-Change  Column Row Layer    Maximum-Flux-Residual          L2-NORM 
          0                 1           2             4    7     1       0.6037180819E-02       4    7    1         0.3158020704E+00      0.9083441881E+00
          0                 2           2             4    7     1      -0.5872536608E-03       4    7    1        -0.3158024698E-01      0.9070720095E-01
          0                 3           1             4    7     1       0.3998979236E-04       4    7    1         0.2210617860E-02      0.6337999169E-02

    ------------------------------------------------
       NWT REQUIRED            3 OUTER ITERATIONS 
       AND A TOTAL OF          5 INNER ITERATIONS.
    ------------------------------------------------

 NO OUTPUT CONTROL FOR STRESS PERIOD   29   TIME STEP   18
 
 SOLVING FOR HEAD 
                                                   Max.-Head-Change                         Max.-Flux-Residual
  Residual-Control   Outer-Iter.   Inner-Iter.     Column Row Layer    Maximum-Head-Change  Column Row Layer    Maximum-Flux-Residual          L2-NORM 
          0                 1           2             4    7     1       0.5996801877E-02       4    7    1         0.3136838698E+00      0.9008625601E+00
          0                 2           2             4    7     1      -0.5833258816E-03       4    7    1        -0.3136842629E-01      0.8997476454E-01
          0                 3           1             4    7     1       0.3972232517E-04       4    7    1         0.2195790414E-02      0.6288203940E-02

    ------------------------------------------------
       NWT REQUIRED            3 OUTER ITERATIONS 
       AND A TOTAL OF          5 INNER ITERATIONS.
    ------------------------------------------------

 NO OUTPUT CONTROL FOR STRESS PERIOD   29   TIME STEP   19
 
 SOLVING FOR HEAD 
                                                   Max.-Head-Change                         Max.-Flux-Residual
  Residual-Control   Outer-Iter.   Inner-Iter.     Column Row Layer    Maximum-Head-Change  Column Row Layer    Maximum-Flux-Residual          L2-NORM 
          0                 1           2             4    7     1       0.5956757654E-02       4    7    1         0.3115829204E+00      0.8938183862E+00
          0                 2           2             4    7     1      -0.5794306617E-03       4    7    1        -0.3115833074E-01      0.8928463362E-01
          0                 3           1             4    7     1       0.3945707573E-04       4    7    1         0.2181083735E-02      0.6241174952E-02

    ------------------------------------------------
       NWT REQUIRED            3 OUTER ITERATIONS 
       AND A TOTAL OF          5 INNER ITERATIONS.
    ------------------------------------------------

 NO OUTPUT CONTROL FOR STRESS PERIOD   29   TIME STEP   20
 
 SOLVING FOR HEAD 
                                                   Max.-Head-Change                         Max.-Flux-Residual
  Residual-Control   Outer-Iter.   Inner-Iter.     Column Row Layer    Maximum-Head-Change  Column Row Layer    Maximum-Flux-Residual          L2-NORM 
          0                 1           2             4    7     1       0.5917176916E-02       4    7    1         0.3095066715E+00      0.8871451817E+00
          0                 2           2             4    7     1      -0.5755805264E-03       4    7    1        -0.3095070525E-01      0.8862846598E-01
          0                 3           1             4    7     1       0.3919489571E-04       4    7    1         0.2166549954E-02      0.6196158249E-02

    ------------------------------------------------
       NWT REQUIRED            3 OUTER ITERATIONS 
       AND A TOTAL OF          5 INNER ITERATIONS.
    ------------------------------------------------

 NO OUTPUT CONTROL FOR STRESS PERIOD   29   TIME STEP   21
 
 SOLVING FOR HEAD 
                                                   Max.-Head-Change                         Max.-Flux-Residual
  Residual-Control   Outer-Iter.   Inner-Iter.     Column Row Layer    Maximum-Head-Change  Column Row Layer    Maximum-Flux-Residual          L2-NORM 
          0                 1           2             4    7     1       0.5877923543E-02       4    7    1         0.3074471077E+00      0.8808041572E+00
          0                 2           2             4    7     1      -0.5717622345E-03       4    7    1        -0.3074474828E-01      0.8800480473E-01
          0                 3           1             4    7     1       0.3893488432E-04       4    7    1         0.2152132958E-02      0.6153485137E-02

    ------------------------------------------------
       NWT REQUIRED            3 OUTER ITERATIONS 
       AND A TOTAL OF          5 INNER ITERATIONS.
    ------------------------------------------------

 NO OUTPUT CONTROL FOR STRESS PERIOD   29   TIME STEP   22
 
 SOLVING FOR HEAD 
                                                   Max.-Head-Change                         Max.-Flux-Residual
  Residual-Control   Outer-Iter.   Inner-Iter.     Column Row Layer    Maximum-Head-Change  Column Row Layer    Maximum-Flux-Residual          L2-NORM 
          0                 1           2             4    7     1       0.5839126186E-02       4    7    1         0.3054118635E+00      0.8747482672E+00
          0                 2           2             4    7     1      -0.5679883010E-03       4    7    1        -0.3054122328E-01      0.8740814444E-01
          0                 3           1             4    7     1       0.3867789348E-04       4    7    1         0.2137886206E-02      0.6112315102E-02

    ------------------------------------------------
       NWT REQUIRED            3 OUTER ITERATIONS 
       AND A TOTAL OF          5 INNER ITERATIONS.
    ------------------------------------------------

 NO OUTPUT CONTROL FOR STRESS PERIOD   29   TIME STEP   23
 
 SOLVING FOR HEAD 
                                                   Max.-Head-Change                         Max.-Flux-Residual
  Residual-Control   Outer-Iter.   Inner-Iter.     Column Row Layer    Maximum-Head-Change  Column Row Layer    Maximum-Flux-Residual          L2-NORM 
          0                 1           2             4    7     1       0.5800645117E-02       4    7    1         0.3033929170E+00      0.8689523612E+00
          0                 2           2             4    7     1      -0.5642451338E-03       4    7    1        -0.3033932805E-01      0.8683670022E-01
          0                 3           1             4    7     1       0.3842299790E-04       4    7    1         0.2123753542E-02      0.6072973414E-02

    ------------------------------------------------
       NWT REQUIRED            3 OUTER ITERATIONS 
       AND A TOTAL OF          5 INNER ITERATIONS.
    ------------------------------------------------

 NO OUTPUT CONTROL FOR STRESS PERIOD   29   TIME STEP   24
 
 SOLVING FOR HEAD 
                                                   Max.-Head-Change                         Max.-Flux-Residual
  Residual-Control   Outer-Iter.   Inner-Iter.     Column Row Layer    Maximum-Head-Change  Column Row Layer    Maximum-Flux-Residual          L2-NORM 
          0                 1           2             4    7     1       0.5762481191E-02       4    7    1         0.3013903696E+00      0.8633798536E+00
          0                 2           2             4    7     1      -0.5605328160E-03       4    7    1        -0.3013907275E-01      0.8628611497E-01
          0                 3           1             4    7     1       0.3817020292E-04       4    7    1         0.2109735668E-02      0.6035236062E-02

    ------------------------------------------------
       NWT REQUIRED            3 OUTER ITERATIONS 
       AND A TOTAL OF          5 INNER ITERATIONS.
    ------------------------------------------------

 NO OUTPUT CONTROL FOR STRESS PERIOD   29   TIME STEP   25
 
 SOLVING FOR HEAD 
                                                   Max.-Head-Change                         Max.-Flux-Residual
  Residual-Control   Outer-Iter.   Inner-Iter.     Column Row Layer    Maximum-Head-Change  Column Row Layer    Maximum-Flux-Residual          L2-NORM 
          0                 1           2             4    7     1       0.5724767028E-02       4    7    1         0.2994116119E+00      0.8580081578E+00
          0                 2           2             4    7     1      -0.5568642481E-03       4    7    1        -0.2994119643E-01      0.8575509183E-01
          0                 3           1             4    7     1       0.3792038695E-04       4    7    1         0.2095884322E-02      0.5998924694E-02

    ------------------------------------------------
       NWT REQUIRED            3 OUTER ITERATIONS 
       AND A TOTAL OF          5 INNER ITERATIONS.
    ------------------------------------------------

 NO OUTPUT CONTROL FOR STRESS PERIOD   29   TIME STEP   26
 
 SOLVING FOR HEAD 
                                                   Max.-Head-Change                         Max.-Flux-Residual
  Residual-Control   Outer-Iter.   Inner-Iter.     Column Row Layer    Maximum-Head-Change  Column Row Layer    Maximum-Flux-Residual          L2-NORM 
          0                 1           2             4    7     1       0.5687493307E-02       4    7    1         0.2974561740E+00      0.8528158444E+00
          0                 2           2             4    7     1      -0.5532385234E-03       4    7    1        -0.2974565208E-01      0.8524101868E-01
          0                 3           1             4    7     1       0.3767348856E-04       4    7    1         0.2082196220E-02      0.5962941316E-02

    ------------------------------------------------
       NWT REQUIRED            3 OUTER ITERATIONS 
       AND A TOTAL OF          5 INNER ITERATIONS.
    ------------------------------------------------

 NO OUTPUT CONTROL FOR STRESS PERIOD   29   TIME STEP   27
 
 SOLVING FOR HEAD 
                                                   Max.-Head-Change                         Max.-Flux-Residual
  Residual-Control   Outer-Iter.   Inner-Iter.     Column Row Layer    Maximum-Head-Change  Column Row Layer    Maximum-Flux-Residual          L2-NORM 
          0                 1           2             4    7     1       0.5650386173E-02       4    7    1         0.2955088795E+00      0.8477791672E+00
          0                 2           2             4    7     1      -0.5496290032E-03       4    7    1        -0.2955092210E-01      0.8474195860E-01
          0                 3           1             4    7     1       0.3742769390E-04       4    7    1         0.2068565124E-02      0.5928591450E-02

    ------------------------------------------------
       NWT REQUIRED            3 OUTER ITERATIONS 
       AND A TOTAL OF          5 INNER ITERATIONS.
    ------------------------------------------------

 NO OUTPUT CONTROL FOR STRESS PERIOD   29   TIME STEP   28
 
 SOLVING FOR HEAD 
                                                   Max.-Head-Change                         Max.-Flux-Residual
  Residual-Control   Outer-Iter.   Inner-Iter.     Column Row Layer    Maximum-Head-Change  Column Row Layer    Maximum-Flux-Residual          L2-NORM 
          0                 1           2             4    7     1       0.5613718341E-02       4    7    1         0.2935849152E+00      0.8428852749E+00
          0                 2           2             4    7     1      -0.5460622149E-03       4    7    1        -0.2935852513E-01      0.8425760611E-01
          0                 3           1             4    7     1       0.3718480890E-04       4    7    1         0.2055097334E-02      0.5895060510E-02

    ------------------------------------------------
       NWT REQUIRED            3 OUTER ITERATIONS 
       AND A TOTAL OF          5 INNER ITERATIONS.
    ------------------------------------------------

 NO OUTPUT CONTROL FOR STRESS PERIOD   29   TIME STEP   29
 
 SOLVING FOR HEAD 
                                                   Max.-Head-Change                         Max.-Flux-Residual
  Residual-Control   Outer-Iter.   Inner-Iter.     Column Row Layer    Maximum-Head-Change  Column Row Layer    Maximum-Flux-Residual          L2-NORM 
          0                 1           2             4    7     1       0.5577565641E-02       4    7    1         0.2916837282E+00      0.8697069928E+00
          0                 2           2             4    7     1      -0.5425455346E-03       4    7    1        -0.2916840589E-01      0.8682916152E-01
          0                 3           1             4    7     1       0.3694533567E-04       4    7    1         0.2041788982E-02      0.6065025110E-02

    ------------------------------------------------
       NWT REQUIRED            3 OUTER ITERATIONS 
       AND A TOTAL OF          5 INNER ITERATIONS.
    ------------------------------------------------

 NO OUTPUT CONTROL FOR STRESS PERIOD   29   TIME STEP   30



 STREAM LISTING     PERIOD     29   STEP       30

 LAYER ROW COL. STREAM  RCH.  FLOW INTO     FLOW TO   FLOW OUT OF   OVRLND.     DIRECT     STREAM       STREAM     STREAM     STREAM   STREAMBED  STREAMBED
                SEG.NO.  NO.  STRM. RCH.    AQUIFER    STRM. RCH.    RUNOFF     PRECIP       ET          HEAD       DEPTH      WIDTH   CONDCTNC.   GRADIENT

   1    1    1     1     1    1.8581E+01  2.1154E-01   1.8369E+01  0.000E+00  0.000E+00  0.000E+00  1.09412E+03  1.075E+00  1.154E+01  5.191E-02  1.358E+00
   1    2    2     1     2    1.8369E+01  3.2630E-01   1.8043E+01  0.000E+00  0.000E+00  0.000E+00  1.08913E+03  1.070E+00  1.145E+01  8.016E-02  1.357E+00
   1    3    3     1     3    1.8043E+01  2.7702E-01   1.7766E+01  0.000E+00  0.000E+00  0.000E+00  1.08348E+03  1.065E+00  1.136E+01  6.814E-02  1.355E+00
   1    3    4     1     4    1.7766E+01  2.5406E-01   1.7512E+01  0.000E+00  0.000E+00  0.000E+00  1.07847E+03  1.061E+00  1.127E+01  6.256E-02  1.354E+00
   1    4    5     2     1    1.5512E+01  3.0432E-01   1.5207E+01  0.000E+00  0.000E+00  0.000E+00  1.07284E+03  9.015E-01  1.200E+01  7.800E-02  1.301E+00
   1    5    6     2     2    1.5207E+01  2.3352E-01   1.4974E+01  0.000E+00  0.000E+00  0.000E+00  1.06740E+03  8.920E-01  1.200E+01  6.000E-02  1.297E+00
   1    6    6     2     3    1.4974E+01  2.3302E-01   1.4741E+01  0.000E+00  0.000E+00  0.000E+00  1.06268E+03  8.837E-01  1.200E+01  6.000E-02  1.295E+00
   1    7    6     2     4    1.4741E+01  2.3252E-01   1.4508E+01  0.000E+00  0.000E+00  0.000E+00  1.05795E+03  8.754E-01  1.200E+01  6.000E-02  1.292E+00
   1    8    6     2     5    1.4508E+01  2.3202E-01   1.4276E+01  0.000E+00  0.000E+00  0.000E+00  1.05323E+03  8.670E-01  1.200E+01  6.000E-02  1.289E+00
   1    3    5     3     1    2.0000E+00  2.8252E-01   1.7175E+00  0.000E+00  0.000E+00  0.000E+00  1.07555E+03  1.909E+00  9.636E+00  7.227E-02  1.955E+00
   1    3    6     3     2    1.7175E+00  2.4905E-01   1.4684E+00  0.000E+00  0.000E+00  0.000E+00  1.07264E+03  1.727E+00  8.909E+00  6.682E-02  1.864E+00
   1    3    7     3     3    1.4684E+00  1.9718E-01   1.2712E+00  0.000E+00  0.000E+00  0.000E+00  1.06987E+03  1.555E+00  8.218E+00  5.547E-02  1.777E+00
   1    4    8     3     4    1.2712E+00  2.2567E-01   1.0456E+00  0.000E+00  0.000E+00  0.000E+00  1.06682E+03  1.364E+00  7.455E+00  6.709E-02  1.682E+00
   1    5    8     3     5    1.0456E+00  1.5790E-01   8.8768E-01  0.000E+00  0.000E+00  0.000E+00  1.06362E+03  1.164E+00  6.655E+00  4.991E-02  1.582E+00
   1    6    8     3     6    8.8768E-01  5.5980E-02   8.3170E-01  0.000E+00  0.000E+00  0.000E+00  1.06158E+03  1.036E+00  6.145E+00  1.844E-02  1.518E+00
   1    5   10     4     1    1.0000E+01  9.0919E-02   9.9091E+00  0.000E+00  0.000E+00  0.000E+00  1.07836E+03  6.368E-01  1.000E+01  2.500E-02  1.212E+00
   1    5    9     4     2    9.9091E+00  1.8158E-01   9.7275E+00  0.000E+00  0.000E+00  0.000E+00  1.07154E+03  6.315E-01  1.000E+01  5.000E-02  1.211E+00
   1    6    8     4     3    9.7275E+00  1.2689E-01   9.6006E+00  0.000E+00  0.000E+00  0.000E+00  1.06381E+03  6.256E-01  1.000E+01  3.500E-02  1.209E+00
   1    6    8     5     1    1.0432E+01  2.2686E-01   1.0205E+01  0.000E+00  0.000E+00  0.000E+00  1.05868E+03  6.790E-01  1.542E+01  6.166E-02  1.226E+00
   1    7    7     5     2    1.0205E+01  2.7894E-01   9.9265E+00  0.000E+00  0.000E+00  0.000E+00  1.05417E+03  6.732E-01  1.519E+01  7.594E-02  1.224E+00
   1    8    7     5     3    9.9265E+00  1.9221E-01   9.7343E+00  0.000E+00  0.000E+00  0.000E+00  1.04992E+03  6.676E-01  1.497E+01  5.241E-02  1.223E+00
   1    8    6     5     4    9.7343E+00  1.3577E-01   9.5985E+00  0.000E+00  0.000E+00  0.000E+00  1.04691E+03  6.637E-01  1.482E+01  3.706E-02  1.221E+00
   1    9    6     6     1    2.3875E+01  2.5104E-01   2.3624E+01  0.000E+00  0.000E+00  0.000E+00  1.04391E+03  1.184E+00  1.200E+01  6.000E-02  1.395E+00
   1   10    7     6     2    2.3624E+01  2.5059E-01   2.3373E+01  0.000E+00  0.000E+00  0.000E+00  1.03936E+03  1.177E+00  1.200E+01  6.000E-02  1.392E+00
   1   11    7     6     3    2.3373E+01  2.5014E-01   2.3123E+01  0.000E+00  0.000E+00  0.000E+00  1.03481E+03  1.169E+00  1.200E+01  6.000E-02  1.390E+00
   1   12    7     6     4    2.3123E+01  2.4969E-01   2.2873E+01  0.000E+00  0.000E+00  0.000E+00  1.03025E+03  1.161E+00  1.200E+01  6.000E-02  1.387E+00
   1   13    7     6     5    2.2873E+01  8.5929E-03   2.2865E+01  0.000E+00  0.000E+00  0.000E+00  1.02707E+03  1.157E+00  1.200E+01  2.400E-02  1.193E-01
   1   14    9     7     1    1.5000E+02  1.3779E+00   1.4862E+02  0.000E+00  0.000E+00  0.000E+00  1.03987E+03  2.288E+00  5.529E+01  5.593E-01  8.212E-01
   1   13    8     7     2    1.4862E+02  1.9561E+00   1.4667E+02  0.000E+00  0.000E+00  0.000E+00  1.03478E+03  2.279E+00  5.525E+01  6.147E-01  1.061E+00
   1   13    7     7     3    1.4667E+02  1.6639E+00   1.4500E+02  0.000E+00  0.000E+00  0.000E+00  1.02969E+03  2.269E+00  5.521E+01  5.584E-01  9.933E-01
   1   13    6     8     1    1.6787E+02  1.0949E+00   1.6677E+02  0.000E+00  0.000E+00  0.000E+00  1.02481E+03  2.935E+00  4.255E+01  4.336E-01  8.417E-01
   1   13    5     8     2    1.6677E+02  3.3057E-01   1.6644E+02  0.000E+00  0.000E+00  0.000E+00  1.01855E+03  2.930E+00  4.248E+01  4.329E-01  2.545E-01
   1   13    4     8     3    1.6644E+02 -1.8374E+00   1.6828E+02  0.000E+00  0.000E+00  0.000E+00  1.01231E+03  2.935E+00  4.256E+01  4.337E+00 -1.412E-01
   1   13    3     8     4    1.6828E+02 -3.3072E+00   1.7159E+02  0.000E+00  0.000E+00  0.000E+00  1.00608E+03  2.952E+00  4.280E+01  4.362E+00 -2.528E-01
   1   13    2     8     5    1.7159E+02 -2.4075E+00   1.7399E+02  0.000E+00  0.000E+00  0.000E+00  9.99845E+02  2.970E+00  4.307E+01  4.389E+00 -1.828E-01
   1   13    1     8     6    1.7399E+02 -1.9226E+00   1.7592E+02  0.000E+00  0.000E+00  0.000E+00  9.94859E+02  2.984E+00  4.327E+01  2.646E+00 -2.422E-01
   1    8    6     9     1    0.0000E+00  0.0000E+00   0.0000E+00  0.000E+00  0.000E+00  0.000E+00  1.07875E+03  0.000E+00  4.000E+00  0.000E+00  1.000E+00
   1    8    5     9     2    0.0000E+00  0.0000E+00   0.0000E+00  0.000E+00  0.000E+00  0.000E+00  1.07825E+03  0.000E+00  4.000E+00  0.000E+00  1.000E+00





UNSATURATED ZONE PACKAGE VOLUMETRIC BUDGET FOR  TIME STEP    30 STRESS PERIOD   29
  ------------------------------------------------------------------------------



     CUMULATIVE VOLUMES      L**3       RATES FOR THIS TIME STEP      L**3/T
     ------------------                 ------------------------

           IN:                                      IN:
           ---                                      ---
        INFILTRATION =  1123678349.9861          INFILTRATION =           4.4075

          OUT:                                     OUT:
          ----                                     ----
              UZF ET =  1028776433.8341                UZF ET =           4.4075
        UZF RECHARGE =      594759.7204          UZF RECHARGE =       0.0000E+00

            IN - OUT =    94307156.4316              IN - OUT =       0.0000E+00

          STORAGE:                                 STORAGE:
          --------                                 --------
      STORAGE CHANGE =    94307141.6587        STORAGE CHANGE =      -7.9178E-14

 PERCENT DISCREPANCY IS DIFFERENCE BETWEEN IN-OUT MINUS CHANGE IN STORAGE
 DIVIDED BY THE AVERAGE OF IN AND OUT TIMES 100

 PERCENT DISCREPANCY =           0.00     PERCENT DISCREPANCY =           0.00






1
  VOLUMETRIC BUDGET FOR AGRICULTURAL FIELDS AT  END OF TIME STEP   30, STRESS PERIOD  29
  ------------------------------------------------------------------------------

     CUMULATIVE VOLUMES      L**3       RATES FOR THIS TIME STEP      L**3/T
     ------------------                 ------------------------

           IN:                                      IN:
           ---                                      ---
               AG WELLS  =   419684928.0000                 AG WELLS  =           0.0000
      DIVERSION SEGMENTS =   379344352.0000        DIVERSION SEGMENTS =           0.0000
           GW IRRIGATION =           0.0000             GW IRRIGATION =           0.0000
           SW IRRIGATION =           0.0000             SW IRRIGATION =           0.0000
        SYSTEM LOSSES GW =           0.0000          SYSTEM LOSSES GW =           0.0000
        SYSTEM LOSSES SW =           0.0000          SYSTEM LOSSES SW =           0.0000

                TOTAL IN =   799029248.0000                  TOTAL IN =           0.0000

          OUT:                                     OUT:
          ----                                     ----
               AG WELLS  =           0.0000                 AG WELLS  =           0.0000
      DIVERSION SEGMENTS =           0.0000        DIVERSION SEGMENTS =           0.0000
           GW IRRIGATION =   419684928.0000             GW IRRIGATION =           0.0000
           SW IRRIGATION =   379352160.0000             SW IRRIGATION =           0.0000
        SYSTEM LOSSES GW =           0.0000          SYSTEM LOSSES GW =           0.0000
        SYSTEM LOSSES SW =           0.0000          SYSTEM LOSSES SW =           0.0000

               TOTAL OUT =   799037056.0000                 TOTAL OUT =           0.0000

                IN - OUT =       -7808.0000                  IN - OUT =           0.0000

     PERCENT DISCREPANCY =          -0.00         PERCENT DISCREPANCY =           0.00



1
  VOLUMETRIC BUDGET FOR ENTIRE MODEL AT END OF TIME STEP   30, STRESS PERIOD  29
  ------------------------------------------------------------------------------

     CUMULATIVE VOLUMES      L**3       RATES FOR THIS TIME STEP      L**3/T
     ------------------                 ------------------------

           IN:                                      IN:
           ---                                      ---
             STORAGE     =   630669568.0000               STORAGE     =           1.6786
       CONSTANT HEAD     =           0.0000         CONSTANT HEAD     =           0.0000
     HEAD DEP BOUNDS     =    21243412.0000       HEAD DEP BOUNDS     =           0.2886
      STREAM LEAKAGE     =   863546688.0000        STREAM LEAKAGE     =          12.1392
        UZF RECHARGE     =      594759.7500          UZF RECHARGE     =           0.0000
               GW ET     =           0.0000                 GW ET     =           0.0000
     SURFACE LEAKAGE     =           0.0000       SURFACE LEAKAGE     =           0.0000
           AG WELLS      =           0.0000             AG WELLS      =           0.0000

                TOTAL IN =  1516054400.0000                  TOTAL IN =          14.1065

          OUT:                                     OUT:
          ----                                     ----
             STORAGE     =   323444736.0000               STORAGE     =           4.3442
       CONSTANT HEAD     =           0.0000         CONSTANT HEAD     =           0.0000
     HEAD DEP BOUNDS     =    21226534.0000       HEAD DEP BOUNDS     =           0.2883
      STREAM LEAKAGE     =   751664448.0000        STREAM LEAKAGE     =           9.4747
        UZF RECHARGE     =           0.0000          UZF RECHARGE     =           0.0000
               GW ET     =           0.0000                 GW ET     =           0.0000
     SURFACE LEAKAGE     =           0.0000       SURFACE LEAKAGE     =           0.0000
           AG WELLS      =   419684928.0000             AG WELLS      =           0.0000

               TOTAL OUT =  1516020736.0000                 TOTAL OUT =          14.1072

                IN - OUT =       33664.0000                  IN - OUT =      -7.5817E-04

     PERCENT DISCREPANCY =           0.00         PERCENT DISCREPANCY =          -0.01






         TIME SUMMARY AT END OF TIME STEP   30 IN STRESS PERIOD   29
                    SECONDS     MINUTES      HOURS       DAYS        YEARS
                    -----------------------------------------------------------
   TIME STEP LENGTH  87667.      1461.1      24.352      1.0147     2.77799E-03
 STRESS PERIOD TIME 2.63000E+06  43833.      730.56      30.440     8.33397E-02
         TOTAL TIME 7.37266E+07 1.22878E+06  20480.      853.32      2.3363    
1
1
                            STRESS PERIOD NO.   30, LENGTH =   2630000.    
                            -----------------------------------------------

                              NUMBER OF TIME STEPS =    30

                               MULTIPLIER FOR DELT =     1.000

                            INITIAL TIME STEP SIZE =   87666.66    

 REUSING NON-PARAMETER GHB CELLS FROM LAST STRESS PERIOD

      2 GHB CELLS

 REUSING STREAM SEGMENT DATA FROM LAST STRESS PERIOD



            AREAL INFILTRATION RATE
 READING ON UNIT   19 WITH FORMAT: (10F4.0)            

            1           2           3           4           5           6           7           8           9          10
 ........................................................................................................................
   1   1.2000E-09   0.000       0.000       0.000       0.000       0.000       0.000       0.000       0.000       0.000    
   2   2.1000E-09  2.0000E-09  8.0000E-10  8.5000E-09   0.000       0.000       0.000       0.000       0.000       0.000    
   3   5.0000E-10  1.1000E-09  8.8000E-09  5.5000E-09   0.000       0.000       0.000       0.000       0.000       0.000    
   4   8.5000E-09  1.1000E-09  1.1000E-09  1.1000E-09  2.0000E-09   0.000       0.000       0.000       0.000       0.000    
   5   8.5000E-09  1.1000E-09  1.1000E-09  1.1000E-09  1.1000E-09   0.000       0.000       0.000       0.000       0.000    
   6   8.5000E-09  5.2000E-09  2.1000E-09  1.1000E-09  1.5000E-09   0.000       0.000       0.000       0.000       0.000    
   7   8.5000E-09  5.2000E-09  2.1000E-09  1.2000E-09  2.0000E-09   0.000       0.000       0.000       0.000       0.000    
   8   5.0000E-10  5.2000E-09  2.1000E-09  1.2000E-09  5.0000E-09   0.000       0.000       0.000       0.000       0.000    
   9   5.0000E-10  5.2000E-09  2.1000E-09  1.2000E-09  5.0000E-09   0.000       0.000       0.000       0.000       0.000    
  10   5.0000E-10  5.2000E-09  2.1000E-09  1.2000E-09  5.8000E-09   0.000       0.000       0.000       0.000       0.000    
  11   1.0000E-10  1.1000E-09  1.1000E-09  1.2000E-09  5.0000E-09   0.000       0.000       0.000       0.000       0.000    
  12   1.1000E-09  1.1000E-09  1.1000E-09  1.1000E-09  2.0000E-09   0.000       0.000       0.000       0.000       0.000    
  13   1.1000E-09  2.2000E-09  2.2000E-09  2.1000E-09  1.0000E-09   0.000       0.000       0.000       0.000       0.000    
  14   2.0000E-10  5.5000E-09  5.5000E-09  5.2000E-09  1.0000E-09   0.000       0.000       0.000       0.000       0.000    
  15    0.000      8.8000E-09  8.8000E-09   0.000       0.000       0.000       0.000       0.000       0.000       0.000    

                  ET RATE =  5.000000E-08

 USING ET EXTINCTION DEPTH FROM PREVIOUS STRESS PERIOD. CURRENT PERIOD IS:      30

 USING EXTINCTION WATER CONTENT FROM PREVIOUS STRESS PERIOD. CURRENT PERIOD IS:      30

 USING AIR ENTRY PRESSURE FROM PREVIOUS STRESS PERIOD. CURRENT PERIOD IS:      30

 USING ROOT PRESSURE HEAD FROM PREVIOUS STRESS PERIOD. CURRENT PERIOD IS:      30

 USING ROOT ACTIVITY FROM PREVIOUS STRESS PERIOD. CURRENT PERIOD IS:      30

 PROCESSING AG STRESS PERIOD DATA

 READING AG STRESS PERIOD DATA

 READING IRRIGATION SEGMENT

 READING IRRIGATION WELL

 READING SUPPLEMENTAL WELL

 END PROCESSING AG STRESS PERIOD DATA OPTIONS
 
 SOLVING FOR HEAD 
                                                   Max.-Head-Change                         Max.-Flux-Residual
  Residual-Control   Outer-Iter.   Inner-Iter.     Column Row Layer    Maximum-Head-Change  Column Row Layer    Maximum-Flux-Residual          L2-NORM 
          0                 1           2             4   13     1       0.9721238314E-02       4   13    1         0.5591595803E+00      0.1296286267E+01
          0                 2           2             2   13     1      -0.3534511931E-02       2   13    1        -0.2045599761E+00      0.3529350485E+00
          0                 3           2             4   13     1      -0.2820282997E-03       4   13    1        -0.1696266774E-01      0.2746100955E-01
          0                 4           1             4   13     1      -0.3200352344E-04       4   13    1        -0.1900516148E-02      0.2098998524E-02

    ------------------------------------------------
       NWT REQUIRED            4 OUTER ITERATIONS 
       AND A TOTAL OF          7 INNER ITERATIONS.
    ------------------------------------------------

 NO OUTPUT CONTROL FOR STRESS PERIOD   30   TIME STEP    1
 
 SOLVING FOR HEAD 
                                                   Max.-Head-Change                         Max.-Flux-Residual
  Residual-Control   Outer-Iter.   Inner-Iter.     Column Row Layer    Maximum-Head-Change  Column Row Layer    Maximum-Flux-Residual          L2-NORM 
          0                 1           2             4   13     1       0.9155616356E-02       4   13    1         0.5264617475E+00      0.1259137250E+01
          0                 2           2             2   13     1      -0.3385297591E-02       2   13    1        -0.1959305904E+00      0.3313961002E+00
          0                 3           2             4   13     1      -0.2312791952E-03       4   13    1        -0.1393363353E-01      0.2504818484E-01
          0                 4           1             4   13     1      -0.2624691780E-04       4   13    1        -0.1557818240E-02      0.1774561183E-02

    ------------------------------------------------
       NWT REQUIRED            4 OUTER ITERATIONS 
       AND A TOTAL OF          7 INNER ITERATIONS.
    ------------------------------------------------

 NO OUTPUT CONTROL FOR STRESS PERIOD   30   TIME STEP    2
 
 SOLVING FOR HEAD 
                                                   Max.-Head-Change                         Max.-Flux-Residual
  Residual-Control   Outer-Iter.   Inner-Iter.     Column Row Layer    Maximum-Head-Change  Column Row Layer    Maximum-Flux-Residual          L2-NORM 
          0                 1           2             4   13     1       0.8420509193E-02       4   13    1         0.4839182012E+00      0.1220191679E+01
          0                 2           2             2   13     1      -0.3350933103E-02       2   13    1        -0.1939376412E+00      0.3304084537E+00
          0                 3           2             4   13     1      -0.2388933485E-03       4   13    1        -0.1438700925E-01      0.2514957320E-01
          0                 4           1             4   13     1      -0.2710894302E-04       4   13    1        -0.1609409754E-02      0.1816096140E-02

    ------------------------------------------------
       NWT REQUIRED            4 OUTER ITERATIONS 
       AND A TOTAL OF          7 INNER ITERATIONS.
    ------------------------------------------------

 NO OUTPUT CONTROL FOR STRESS PERIOD   30   TIME STEP    3
 
 SOLVING FOR HEAD 
                                                   Max.-Head-Change                         Max.-Flux-Residual
  Residual-Control   Outer-Iter.   Inner-Iter.     Column Row Layer    Maximum-Head-Change  Column Row Layer    Maximum-Flux-Residual          L2-NORM 
          0                 1           2             4   13     1       0.7776206737E-02       4   13    1         0.4466468581E+00      0.1185817794E+01
          0                 2           2             2   13     1      -0.3310767496E-02       2   13    1        -0.1919620899E+00      0.3076934220E+00
          0                 3           2             4   13     1      -0.2484612141E-03       4   13    1        -0.1469437253E-01      0.2622336204E-01
          0                 4           1             4   13     1      -0.2860375858E-04       4   13    1        -0.1689440143E-02      0.2324986729E-02

    ------------------------------------------------
       NWT REQUIRED            4 OUTER ITERATIONS 
       AND A TOTAL OF          7 INNER ITERATIONS.
    ------------------------------------------------

 NO OUTPUT CONTROL FOR STRESS PERIOD   30   TIME STEP    4
 
 SOLVING FOR HEAD 
                                                   Max.-Head-Change                         Max.-Flux-Residual
  Residual-Control   Outer-Iter.   Inner-Iter.     Column Row Layer    Maximum-Head-Change  Column Row Layer    Maximum-Flux-Residual          L2-NORM 
          0                 1           2             4   13     1       0.7214046235E-02       4   13    1         0.4141096588E+00      0.1156590975E+01
          0                 2           2             2   13     1      -0.3274379212E-02       2   13    1        -0.1900475896E+00      0.2968180292E+00
          0                 3           2             4   13     1      -0.2527609191E-03       4   13    1        -0.1497558516E-01      0.2507393082E-01
          0                 4           1             4   13     1      -0.2901354187E-04       4   13    1        -0.1716195491E-02      0.2201571573E-02

    ------------------------------------------------
       NWT REQUIRED            4 OUTER ITERATIONS 
       AND A TOTAL OF          7 INNER ITERATIONS.
    ------------------------------------------------

 NO OUTPUT CONTROL FOR STRESS PERIOD   30   TIME STEP    5
 
 SOLVING FOR HEAD 
                                                   Max.-Head-Change                         Max.-Flux-Residual
  Residual-Control   Outer-Iter.   Inner-Iter.     Column Row Layer    Maximum-Head-Change  Column Row Layer    Maximum-Flux-Residual          L2-NORM 
          0                 1           2             2   13     1       0.6873956505E-02       2   13    1         0.3873692410E+00      0.1128223308E+01
          0                 2           2             2   13     1      -0.2995075101E-02       2   13    1        -0.1738682433E+00      0.2722209312E+00
          0                 3           2             4   13     1      -0.2265065502E-03       4   13    1        -0.1342261767E-01      0.2282156984E-01
          0                 4           1             4   13     1      -0.2599820245E-04       4   13    1        -0.1537926333E-02      0.1979493083E-02

    ------------------------------------------------
       NWT REQUIRED            4 OUTER ITERATIONS 
       AND A TOTAL OF          7 INNER ITERATIONS.
    ------------------------------------------------

 NO OUTPUT CONTROL FOR STRESS PERIOD   30   TIME STEP    6
 
 SOLVING FOR HEAD 
                                                   Max.-Head-Change                         Max.-Flux-Residual
  Residual-Control   Outer-Iter.   Inner-Iter.     Column Row Layer    Maximum-Head-Change  Column Row Layer    Maximum-Flux-Residual          L2-NORM 
          0                 1           2             2   13     1       0.6546583584E-02       2   13    1         0.3689367889E+00      0.1101637747E+01
          0                 2           2             2   13     1      -0.3226042883E-02       2   13    1        -0.1871879895E+00      0.2986670943E+00
          0                 3           2             4   13     1      -0.2750582939E-03       4   13    1        -0.1629422038E-01      0.2581847785E-01
          0                 4           1             4   13     1      -0.3859459465E-04       4   13    1        -0.2281873671E-02      0.3016392768E-02

    ------------------------------------------------
       NWT REQUIRED            4 OUTER ITERATIONS 
       AND A TOTAL OF          7 INNER ITERATIONS.
    ------------------------------------------------

 NO OUTPUT CONTROL FOR STRESS PERIOD   30   TIME STEP    7
 
 SOLVING FOR HEAD 
                                                   Max.-Head-Change                         Max.-Flux-Residual
  Residual-Control   Outer-Iter.   Inner-Iter.     Column Row Layer    Maximum-Head-Change  Column Row Layer    Maximum-Flux-Residual          L2-NORM 
          0                 1           2             2   13     1       0.6263349310E-02       2   13    1         0.3529859054E+00      0.1079548204E+01
          0                 2           2             2   13     1      -0.2958950332E-02       2   13    1        -0.1717201979E+00      0.2745334353E+00
          0                 3           2             4   13     1      -0.4641034162E-03       4   13    1        -0.2743952043E-01      0.3594049941E-01
          0                 4           1             4   13     1      -0.1262745851E-03       4   13    1        -0.7458119279E-02      0.1062953018E-01
          0                 5           1             4   13     1      -0.4754833328E-04       4   13    1        -0.2807923439E-02      0.4038420156E-02

    ------------------------------------------------
       NWT REQUIRED            5 OUTER ITERATIONS 
       AND A TOTAL OF          8 INNER ITERATIONS.
    ------------------------------------------------

 NO OUTPUT CONTROL FOR STRESS PERIOD   30   TIME STEP    8
 
 SOLVING FOR HEAD 
                                                   Max.-Head-Change                         Max.-Flux-Residual
  Residual-Control   Outer-Iter.   Inner-Iter.     Column Row Layer    Maximum-Head-Change  Column Row Layer    Maximum-Flux-Residual          L2-NORM 
          0                 1           2             2   13     1       0.6004305289E-02       2   13    1         0.3383944345E+00      0.1060053199E+01
          0                 2           2             2   13     1      -0.2893954855E-02       2   13    1        -0.1679378388E+00      0.2704639176E+00
          0                 3           2             4   13     1      -0.5006664276E-03       4   13    1        -0.2959602065E-01      0.3887200401E-01
          0                 4           2             4   13     1      -0.1395922192E-03       4   13    1        -0.8244670730E-02      0.1171928056E-01
          0                 5           1             4   13     1      -0.5185721690E-04       4   13    1        -0.3062401662E-02      0.4398569639E-02

    ------------------------------------------------
       NWT REQUIRED            5 OUTER ITERATIONS 
       AND A TOTAL OF          9 INNER ITERATIONS.
    ------------------------------------------------

 NO OUTPUT CONTROL FOR STRESS PERIOD   30   TIME STEP    9
 
 SOLVING FOR HEAD 
                                                   Max.-Head-Change                         Max.-Flux-Residual
  Residual-Control   Outer-Iter.   Inner-Iter.     Column Row Layer    Maximum-Head-Change  Column Row Layer    Maximum-Flux-Residual          L2-NORM 
          0                 1           2             2   13     1       0.5764292796E-02       2   13    1         0.3248724084E+00      0.1042559273E+01
          0                 2           2             2   13     1      -0.2820509111E-02       2   13    1        -0.1636689574E+00      0.2653184286E+00
          0                 3           2             4   13     1      -0.5369466450E-03       4   13    1        -0.3173550519E-01      0.4197214419E-01
          0                 4           2             4   13     1      -0.1523183413E-03       4   13    1        -0.8996353265E-02      0.1275001002E-01
          0                 5           1             4   13     1      -0.5565958375E-04       4   13    1        -0.3286987383E-02      0.4713764170E-02

    ------------------------------------------------
       NWT REQUIRED            5 OUTER ITERATIONS 
       AND A TOTAL OF          9 INNER ITERATIONS.
    ------------------------------------------------

 NO OUTPUT CONTROL FOR STRESS PERIOD   30   TIME STEP   10
 
 SOLVING FOR HEAD 
                                                   Max.-Head-Change                         Max.-Flux-Residual
  Residual-Control   Outer-Iter.   Inner-Iter.     Column Row Layer    Maximum-Head-Change  Column Row Layer    Maximum-Flux-Residual          L2-NORM 
          0                 1           2             2   13     1       0.5541286661E-02       2   13    1         0.3123062577E+00      0.1026753334E+01
          0                 2           2             2   13     1      -0.2769506788E-02       2   13    1        -0.1606994819E+00      0.2622315978E+00
          0                 3           2             4   13     1      -0.5567333778E-03       4   13    1        -0.3290254303E-01      0.4372158394E-01
          0                 4           2             4   13     1      -0.1608316616E-03       4   13    1        -0.9499082911E-02      0.1346438588E-01
          0                 5           1             4   13     1      -0.5827270265E-04       4   13    1        -0.3441339580E-02      0.4929405959E-02

    ------------------------------------------------
       NWT REQUIRED            5 OUTER ITERATIONS 
       AND A TOTAL OF          9 INNER ITERATIONS.
    ------------------------------------------------

 NO OUTPUT CONTROL FOR STRESS PERIOD   30   TIME STEP   11
 
 SOLVING FOR HEAD 
                                                   Max.-Head-Change                         Max.-Flux-Residual
  Residual-Control   Outer-Iter.   Inner-Iter.     Column Row Layer    Maximum-Head-Change  Column Row Layer    Maximum-Flux-Residual          L2-NORM 
          0                 1           2             2   13     1       0.5334182120E-02       2   13    1         0.3006343389E+00      0.1012406949E+01
          0                 2           2             2   13     1      -0.2747730694E-02       2   13    1        -0.1594217040E+00      0.2618797010E+00
          0                 3           2             4   13     1      -0.5541404904E-03       4   13    1        -0.3275018467E-01      0.4347626090E-01
          0                 4           2             4   13     1      -0.1640273857E-03       4   13    1        -0.9687511489E-02      0.1378799767E-01
          0                 5           1             4   13     1      -0.5950058769E-04       4   13    1        -0.3513863451E-02      0.5030700988E-02

    ------------------------------------------------
       NWT REQUIRED            5 OUTER ITERATIONS 
       AND A TOTAL OF          9 INNER ITERATIONS.
    ------------------------------------------------

 NO OUTPUT CONTROL FOR STRESS PERIOD   30   TIME STEP   12
 
 SOLVING FOR HEAD 
                                                   Max.-Head-Change                         Max.-Flux-Residual
  Residual-Control   Outer-Iter.   Inner-Iter.     Column Row Layer    Maximum-Head-Change  Column Row Layer    Maximum-Flux-Residual          L2-NORM 
          0                 1           2             4    7     1       0.5152928713E-02       2   13    1         0.2898075239E+00      0.9993347389E+00
          0                 2           2             2   13     1      -0.2727639251E-02       2   13    1        -0.1582429809E+00      0.2615355007E+00
          0                 3           2             4   13     1      -0.5511213871E-03       4   13    1        -0.3257257107E-01      0.4319885844E-01
          0                 4           2             4   13     1      -0.1672819440E-03       4   13    1        -0.9879419953E-02      0.1412001585E-01
          0                 5           1             4   13     1      -0.6069953575E-04       4   13    1        -0.3584670998E-02      0.5129128471E-02

    ------------------------------------------------
       NWT REQUIRED            5 OUTER ITERATIONS 
       AND A TOTAL OF          9 INNER ITERATIONS.
    ------------------------------------------------

 NO OUTPUT CONTROL FOR STRESS PERIOD   30   TIME STEP   13
 
 SOLVING FOR HEAD 
                                                   Max.-Head-Change                         Max.-Flux-Residual
  Residual-Control   Outer-Iter.   Inner-Iter.     Column Row Layer    Maximum-Head-Change  Column Row Layer    Maximum-Flux-Residual          L2-NORM 
          0                 1           2             4    7     1       0.5123309533E-02       2   13    1         0.2797614651E+00      0.9873875389E+00
          0                 2           2             2   13     1      -0.2709009158E-02       2   13    1        -0.1571500462E+00      0.2621930191E+00
          0                 3           2             4   13     1      -0.5208892820E-03       4   13    1        -0.3076989847E-01      0.4192955586E-01
          0                 4           2             4   13     1      -0.1640096173E-03       4   13    1        -0.9684266913E-02      0.1399153302E-01
          0                 5           1             4   13     1      -0.6027196498E-04       4   13    1        -0.3559232677E-02      0.5107131555E-02

    ------------------------------------------------
       NWT REQUIRED            5 OUTER ITERATIONS 
       AND A TOTAL OF          9 INNER ITERATIONS.
    ------------------------------------------------

 NO OUTPUT CONTROL FOR STRESS PERIOD   30   TIME STEP   14
 
 SOLVING FOR HEAD 
                                                   Max.-Head-Change                         Max.-Flux-Residual
  Residual-Control   Outer-Iter.   Inner-Iter.     Column Row Layer    Maximum-Head-Change  Column Row Layer    Maximum-Flux-Residual          L2-NORM 
          0                 1           2             4    7     1       0.5093983287E-02       2   13    1         0.2704445116E+00      0.9752772295E+00
          0                 2           2             2   13     1      -0.2691726956E-02       2   13    1        -0.1561363067E+00      0.2631523184E+00
          0                 3           2             4   13     1      -0.5258122554E-03       4   13    1        -0.3106235381E-01      0.4222019424E-01
          0                 4           2             4   13     1      -0.1553207295E-03       4   13    1        -0.9166266767E-02      0.1364808456E-01
          0                 5           1             4   13     1      -0.5644464100E-04       4   13    1        -0.3331182097E-02      0.4947941041E-02

    ------------------------------------------------
       NWT REQUIRED            5 OUTER ITERATIONS 
       AND A TOTAL OF          9 INNER ITERATIONS.
    ------------------------------------------------

 NO OUTPUT CONTROL FOR STRESS PERIOD   30   TIME STEP   15
 
 SOLVING FOR HEAD 
                                                   Max.-Head-Change                         Max.-Flux-Residual
  Residual-Control   Outer-Iter.   Inner-Iter.     Column Row Layer    Maximum-Head-Change  Column Row Layer    Maximum-Flux-Residual          L2-NORM 
          0                 1           2             4    7     1       0.5065078347E-02       4    7    1         0.2646778842E+00      0.9651612734E+00
          0                 2           2             2   13     1      -0.2675868946E-02       2   13    1        -0.1551798842E+00      0.2640341766E+00
          0                 3           2             4   13     1      -0.5269373162E-03       4   13    1        -0.3114562360E-01      0.4126700181E-01
          0                 4           2             4   13     1      -0.1554931816E-03       4   13    1        -0.9182690993E-02      0.1330417302E-01
          0                 5           1             4   13     1      -0.5637082030E-04       4   13    1        -0.3328781582E-02      0.4828417250E-02

    ------------------------------------------------
       NWT REQUIRED            5 OUTER ITERATIONS 
       AND A TOTAL OF          9 INNER ITERATIONS.
    ------------------------------------------------

 NO OUTPUT CONTROL FOR STRESS PERIOD   30   TIME STEP   16
 
 SOLVING FOR HEAD 
                                                   Max.-Head-Change                         Max.-Flux-Residual
  Residual-Control   Outer-Iter.   Inner-Iter.     Column Row Layer    Maximum-Head-Change  Column Row Layer    Maximum-Flux-Residual          L2-NORM 
          0                 1           2             4    7     1       0.5036445566E-02       4    7    1         0.2631718416E+00      0.9553688693E+00
          0                 2           2             2   13     1      -0.2662557590E-02       2   13    1        -0.1543897303E+00      0.2641997834E+00
          0                 3           2             4   13     1      -0.5271011883E-03       4   13    1        -0.3115449805E-01      0.4133230037E-01
          0                 4           2             4   13     1      -0.1552960971E-03       4   13    1        -0.9170997399E-02      0.1328707030E-01
          0                 5           1             4   13     1      -0.5622511613E-04       4   13    1        -0.3320184520E-02      0.4814955698E-02

    ------------------------------------------------
       NWT REQUIRED            5 OUTER ITERATIONS 
       AND A TOTAL OF          9 INNER ITERATIONS.
    ------------------------------------------------

 NO OUTPUT CONTROL FOR STRESS PERIOD   30   TIME STEP   17
 
 SOLVING FOR HEAD 
                                                   Max.-Head-Change                         Max.-Flux-Residual
  Residual-Control   Outer-Iter.   Inner-Iter.     Column Row Layer    Maximum-Head-Change  Column Row Layer    Maximum-Flux-Residual          L2-NORM 
          0                 1           2             4    7     1       0.5008214052E-02       4    7    1         0.2616872583E+00      0.9469743763E+00
          0                 2           2             2   13     1      -0.2648813275E-02       2   13    1        -0.1535854637E+00      0.2637457983E+00
          0                 3           2             4   13     1      -0.5278160076E-03       4   13    1        -0.3119673855E-01      0.4139299137E-01
          0                 4           2             4   13     1      -0.1554558314E-03       4   13    1        -0.9180455640E-02      0.1329696200E-01
          0                 5           1             4   13     1      -0.5616923563E-04       4   13    1        -0.3316895511E-02      0.4808488003E-02

    ------------------------------------------------
       NWT REQUIRED            5 OUTER ITERATIONS 
       AND A TOTAL OF          9 INNER ITERATIONS.
    ------------------------------------------------

 NO OUTPUT CONTROL FOR STRESS PERIOD   30   TIME STEP   18
 
 SOLVING FOR HEAD 
                                                   Max.-Head-Change                         Max.-Flux-Residual
  Residual-Control   Outer-Iter.   Inner-Iter.     Column Row Layer    Maximum-Head-Change  Column Row Layer    Maximum-Flux-Residual          L2-NORM 
          0                 1           2             4    7     1       0.4980373858E-02       4    7    1         0.2602234804E+00      0.9391419643E+00
          0                 2           2             2   13     1      -0.2632394930E-02       2   13    1        -0.1526274102E+00      0.2629308776E+00
          0                 3           2             4   13     1      -0.5307874427E-03       4   13    1        -0.3137199320E-01      0.4166326967E-01
          0                 4           2             4   13     1      -0.1566799203E-03       4   13    1        -0.9252744704E-02      0.1339873309E-01
          0                 5           1             4   13     1      -0.5643712666E-04       4   13    1        -0.3332721839E-02      0.4830400511E-02

    ------------------------------------------------
       NWT REQUIRED            5 OUTER ITERATIONS 
       AND A TOTAL OF          9 INNER ITERATIONS.
    ------------------------------------------------

 NO OUTPUT CONTROL FOR STRESS PERIOD   30   TIME STEP   19
 
 SOLVING FOR HEAD 
                                                   Max.-Head-Change                         Max.-Flux-Residual
  Residual-Control   Outer-Iter.   Inner-Iter.     Column Row Layer    Maximum-Head-Change  Column Row Layer    Maximum-Flux-Residual          L2-NORM 
          0                 1           2             4    7     1       0.4952774465E-02       4    7    1         0.2587726437E+00      0.9318098704E+00
          0                 2           2             2   13     1      -0.2620211892E-02       2   13    1        -0.1519148946E+00      0.2624789068E+00
          0                 3           2             4   13     1      -0.5315257692E-03       4   13    1        -0.3141559144E-01      0.4172673429E-01
          0                 4           2             4   13     1      -0.1568692618E-03       4   13    1        -0.9263941028E-02      0.1341154208E-01
          0                 5           1             4   13     1      -0.5641003047E-04       4   13    1        -0.3331136419E-02      0.4826346671E-02

    ------------------------------------------------
       NWT REQUIRED            5 OUTER ITERATIONS 
       AND A TOTAL OF          9 INNER ITERATIONS.
    ------------------------------------------------

 NO OUTPUT CONTROL FOR STRESS PERIOD   30   TIME STEP   20
 
 SOLVING FOR HEAD 
                                                   Max.-Head-Change                         Max.-Flux-Residual
  Residual-Control   Outer-Iter.   Inner-Iter.     Column Row Layer    Maximum-Head-Change  Column Row Layer    Maximum-Flux-Residual          L2-NORM 
          0                 1           2             4    7     1       0.4925551393E-02       4    7    1         0.2573416406E+00      0.9249298365E+00
          0                 2           2             2   13     1      -0.2609240657E-02       2   13    1        -0.1512734966E+00      0.2620479915E+00
          0                 3           2             4   13     1      -0.5322371736E-03       4   13    1        -0.3145754596E-01      0.4179010530E-01
          0                 4           2             4   13     1      -0.1570876474E-03       4   13    1        -0.9276858763E-02      0.1342735852E-01
          0                 5           1             4   13     1      -0.5635794066E-04       4   13    1        -0.3328065934E-02      0.4820267732E-02

    ------------------------------------------------
       NWT REQUIRED            5 OUTER ITERATIONS 
       AND A TOTAL OF          9 INNER ITERATIONS.
    ------------------------------------------------

 NO OUTPUT CONTROL FOR STRESS PERIOD   30   TIME STEP   21
 
 SOLVING FOR HEAD 
                                                   Max.-Head-Change                         Max.-Flux-Residual
  Residual-Control   Outer-Iter.   Inner-Iter.     Column Row Layer    Maximum-Head-Change  Column Row Layer    Maximum-Flux-Residual          L2-NORM 
          0                 1           2             4    7     1       0.4898554725E-02       4    7    1         0.2559228010E+00      0.9184427904E+00
          0                 2           2             2   13     1      -0.2598881961E-02       2   13    1        -0.1506680036E+00      0.2616249915E+00
          0                 3           2             4   13     1      -0.5328465722E-03       4   13    1        -0.3149344336E-01      0.4184749465E-01
          0                 4           2             4   13     1      -0.1573464643E-03       4   13    1        -0.9292192027E-02      0.1344351692E-01
          0                 5           1             4   13     1      -0.5634830903E-04       4   13    1        -0.3327513083E-02      0.4817755374E-02

    ------------------------------------------------
       NWT REQUIRED            5 OUTER ITERATIONS 
       AND A TOTAL OF          9 INNER ITERATIONS.
    ------------------------------------------------

 NO OUTPUT CONTROL FOR STRESS PERIOD   30   TIME STEP   22
 
 SOLVING FOR HEAD 
                                                   Max.-Head-Change                         Max.-Flux-Residual
  Residual-Control   Outer-Iter.   Inner-Iter.     Column Row Layer    Maximum-Head-Change  Column Row Layer    Maximum-Flux-Residual          L2-NORM 
          0                 1           2             4    7     1       0.4871913910E-02       4    7    1         0.2545230487E+00      0.9123245584E+00
          0                 2           2             2   13     1      -0.2589208403E-02       2   13    1        -0.1501027093E+00      0.2612117018E+00
          0                 3           2             4   13     1      -0.5335639320E-03       4   13    1        -0.3153580195E-01      0.4190716837E-01
          0                 4           2             4   13     1      -0.1574694301E-03       4   13    1        -0.9299424444E-02      0.1345495757E-01
          0                 5           1             4   13     1      -0.5629115682E-04       4   13    1        -0.3324129041E-02      0.4813192716E-02

    ------------------------------------------------
       NWT REQUIRED            5 OUTER ITERATIONS 
       AND A TOTAL OF          9 INNER ITERATIONS.
    ------------------------------------------------

 NO OUTPUT CONTROL FOR STRESS PERIOD   30   TIME STEP   23
 
 SOLVING FOR HEAD 
                                                   Max.-Head-Change                         Max.-Flux-Residual
  Residual-Control   Outer-Iter.   Inner-Iter.     Column Row Layer    Maximum-Head-Change  Column Row Layer    Maximum-Flux-Residual          L2-NORM 
          0                 1           2             4    7     1       0.4845621903E-02       4    7    1         0.2531417470E+00      0.9065353641E+00
          0                 2           2             2   13     1      -0.2580203708E-02       2   13    1        -0.1495766244E+00      0.2608103907E+00
          0                 3           2             4   13     1      -0.5341997285E-03       4   13    1        -0.3157327322E-01      0.4196450282E-01
          0                 4           2             4   13     1      -0.1576926373E-03       4   13    1        -0.9312632348E-02      0.1347111128E-01
          0                 5           1             4   13     1      -0.5628214718E-04       4   13    1        -0.3323611892E-02      0.4810203874E-02

    ------------------------------------------------
       NWT REQUIRED            5 OUTER ITERATIONS 
       AND A TOTAL OF          9 INNER ITERATIONS.
    ------------------------------------------------

 NO OUTPUT CONTROL FOR STRESS PERIOD   30   TIME STEP   24
 
 SOLVING FOR HEAD 
                                                   Max.-Head-Change                         Max.-Flux-Residual
  Residual-Control   Outer-Iter.   Inner-Iter.     Column Row Layer    Maximum-Head-Change  Column Row Layer    Maximum-Flux-Residual          L2-NORM 
          0                 1           2             4    7     1       0.4819531354E-02       4    7    1         0.2517711820E+00      0.9010370156E+00
          0                 2           2             2   13     1      -0.2571889919E-02       2   13    1        -0.1490910392E+00      0.2604232338E+00
          0                 3           2             4   13     1      -0.5348008556E-03       4   13    1        -0.3160869369E-01      0.4201867074E-01
          0                 4           2             4   13     1      -0.1578731820E-03       4   13    1        -0.9323293000E-02      0.1348519238E-01
          0                 5           1             4   13     1      -0.5626789170E-04       4   13    1        -0.3322785943E-02      0.4807262031E-02

    ------------------------------------------------
       NWT REQUIRED            5 OUTER ITERATIONS 
       AND A TOTAL OF          9 INNER ITERATIONS.
    ------------------------------------------------

 NO OUTPUT CONTROL FOR STRESS PERIOD   30   TIME STEP   25
 
 SOLVING FOR HEAD 
                                                   Max.-Head-Change                         Max.-Flux-Residual
  Residual-Control   Outer-Iter.   Inner-Iter.     Column Row Layer    Maximum-Head-Change  Column Row Layer    Maximum-Flux-Residual          L2-NORM 
          0                 1           2             4    7     1       0.4793776218E-02       4    7    1         0.2504184111E+00      0.8958096591E+00
          0                 2           2             2   13     1      -0.2564120272E-02       2   13    1        -0.1486373619E+00      0.2600441141E+00
          0                 3           2             4   13     1      -0.5353866348E-03       4   13    1        -0.3164320447E-01      0.4207130479E-01
          0                 4           2             4   13     1      -0.1580832429E-03       4   13    1        -0.9335714366E-02      0.1350113643E-01
          0                 5           1             4   13     1      -0.5625687839E-04       4   13    1        -0.3322147248E-02      0.4804982308E-02

    ------------------------------------------------
       NWT REQUIRED            5 OUTER ITERATIONS 
       AND A TOTAL OF          9 INNER ITERATIONS.
    ------------------------------------------------

 NO OUTPUT CONTROL FOR STRESS PERIOD   30   TIME STEP   26
 
 SOLVING FOR HEAD 
                                                   Max.-Head-Change                         Max.-Flux-Residual
  Residual-Control   Outer-Iter.   Inner-Iter.     Column Row Layer    Maximum-Head-Change  Column Row Layer    Maximum-Flux-Residual          L2-NORM 
          0                 1           2             4    7     1       0.4768211338E-02       4    7    1         0.2490756822E+00      0.8908238639E+00
          0                 2           2             2   13     1      -0.2556858682E-02       2   13    1        -0.1482134531E+00      0.2596763546E+00
          0                 3           2             4   13     1      -0.5360339779E-03       4   13    1        -0.3168139068E-01      0.4212638944E-01
          0                 4           2             4   13     1      -0.1582225014E-03       4   13    1        -0.9343913638E-02      0.1351372364E-01
          0                 5           1             4   13     1      -0.5623556742E-04       4   13    1        -0.3320883742E-02      0.4802548489E-02

    ------------------------------------------------
       NWT REQUIRED            5 OUTER ITERATIONS 
       AND A TOTAL OF          9 INNER ITERATIONS.
    ------------------------------------------------

 NO OUTPUT CONTROL FOR STRESS PERIOD   30   TIME STEP   27
 
 SOLVING FOR HEAD 
                                                   Max.-Head-Change                         Max.-Flux-Residual
  Residual-Control   Outer-Iter.   Inner-Iter.     Column Row Layer    Maximum-Head-Change  Column Row Layer    Maximum-Flux-Residual          L2-NORM 
          0                 1           2             4    7     1       0.4742968894E-02       4    7    1         0.2477501667E+00      0.8860616853E+00
          0                 2           2             2   13     1      -0.2550053693E-02       2   13    1        -0.1478163303E+00      0.2593156626E+00
          0                 3           2             4   13     1      -0.5365369356E-03       4   13    1        -0.3171094838E-01      0.4217655359E-01
          0                 4           2             4   13     1      -0.1585068853E-03       4   13    1        -0.9360759377E-02      0.1353315625E-01
          0                 5           1             4   13     1      -0.5623330039E-04       4   13    1        -0.3320766585E-02      0.4800826087E-02

    ------------------------------------------------
       NWT REQUIRED            5 OUTER ITERATIONS 
       AND A TOTAL OF          9 INNER ITERATIONS.
    ------------------------------------------------

 NO OUTPUT CONTROL FOR STRESS PERIOD   30   TIME STEP   28
 
 SOLVING FOR HEAD 
                                                   Max.-Head-Change                         Max.-Flux-Residual
  Residual-Control   Outer-Iter.   Inner-Iter.     Column Row Layer    Maximum-Head-Change  Column Row Layer    Maximum-Flux-Residual          L2-NORM 
          0                 1           2             4    7     1       0.4718040015E-02       4    7    1         0.2464413693E+00      0.8815001632E+00
          0                 2           2             2   13     1      -0.2543764606E-02       2   13    1        -0.1474494058E+00      0.2589690678E+00
          0                 3           2             4   13     1      -0.5370947267E-03       4   13    1        -0.3174381249E-01      0.4222596230E-01
          0                 4           2             4   13     1      -0.1587026519E-03       4   13    1        -0.9372309312E-02      0.1354971722E-01
          0                 5           1             4   13     1      -0.5621768573E-04       4   13    1        -0.3319843244E-02      0.4798709710E-02

    ------------------------------------------------
       NWT REQUIRED            5 OUTER ITERATIONS 
       AND A TOTAL OF          9 INNER ITERATIONS.
    ------------------------------------------------

 NO OUTPUT CONTROL FOR STRESS PERIOD   30   TIME STEP   29
 
 SOLVING FOR HEAD 
                                                   Max.-Head-Change                         Max.-Flux-Residual
  Residual-Control   Outer-Iter.   Inner-Iter.     Column Row Layer    Maximum-Head-Change  Column Row Layer    Maximum-Flux-Residual          L2-NORM 
          0                 1           2             4    7     1       0.4693281206E-02       4    7    1         0.2451414808E+00      0.8771272588E+00
          0                 2           2             2   13     1      -0.2537884993E-02       2   13    1        -0.1471064701E+00      0.2586317082E+00
          0                 3           2             4   13     1      -0.5376339688E-03       4   13    1        -0.3177554602E-01      0.4227614268E-01
          0                 4           2             4   13     1      -0.1589079592E-03       4   13    1        -0.9384445329E-02      0.1356573713E-01
          0                 5           1             4   13     1      -0.5622636667E-04       4   13    1        -0.3320369166E-02      0.4798142728E-02

    ------------------------------------------------
       NWT REQUIRED            5 OUTER ITERATIONS 
       AND A TOTAL OF          9 INNER ITERATIONS.
    ------------------------------------------------

 NO OUTPUT CONTROL FOR STRESS PERIOD   30   TIME STEP   30



 STREAM LISTING     PERIOD     30   STEP       30

 LAYER ROW COL. STREAM  RCH.  FLOW INTO     FLOW TO   FLOW OUT OF   OVRLND.     DIRECT     STREAM       STREAM     STREAM     STREAM   STREAMBED  STREAMBED
                SEG.NO.  NO.  STRM. RCH.    AQUIFER    STRM. RCH.    RUNOFF     PRECIP       ET          HEAD       DEPTH      WIDTH   CONDCTNC.   GRADIENT

   1    1    1     1     1    3.7124E+01  2.9395E-01   3.6830E+01  0.000E+00  0.000E+00  0.000E+00  1.09436E+03  1.309E+00  1.516E+01  6.821E-02  1.436E+00
   1    2    2     1     2    3.6830E+01  4.5517E-01   3.6375E+01  0.000E+00  0.000E+00  0.000E+00  1.08936E+03  1.306E+00  1.510E+01  1.057E-01  1.435E+00
   1    3    3     1     3    3.6375E+01  3.8813E-01   3.5987E+01  0.000E+00  0.000E+00  0.000E+00  1.08372E+03  1.303E+00  1.503E+01  9.020E-02  1.434E+00
   1    3    4     1     4    3.5987E+01  3.5736E-01   3.5629E+01  0.000E+00  0.000E+00  0.000E+00  1.07871E+03  1.300E+00  1.497E+01  8.311E-02  1.433E+00
   1    4    5     2     1    3.3629E+01  3.4618E-01   3.3283E+01  0.000E+00  0.000E+00  0.000E+00  1.07337E+03  1.438E+00  1.200E+01  7.800E-02  1.479E+00
   1    5    6     2     2    3.3283E+01  2.6582E-01   3.3017E+01  0.000E+00  0.000E+00  0.000E+00  1.06794E+03  1.430E+00  1.200E+01  6.000E-02  1.477E+00
   1    6    6     2     3    3.3017E+01  2.6541E-01   3.2752E+01  0.000E+00  0.000E+00  0.000E+00  1.06322E+03  1.423E+00  1.200E+01  6.000E-02  1.474E+00
   1    7    6     2     4    3.2752E+01  2.6499E-01   3.2487E+01  0.000E+00  0.000E+00  0.000E+00  1.05849E+03  1.417E+00  1.200E+01  6.000E-02  1.472E+00
   1    8    6     2     5    3.2487E+01  2.6458E-01   3.2222E+01  0.000E+00  0.000E+00  0.000E+00  1.05377E+03  1.410E+00  1.200E+01  6.000E-02  1.470E+00
   1    3    5     3     1    2.0000E+00  2.8252E-01   1.7175E+00  0.000E+00  0.000E+00  0.000E+00  1.07555E+03  1.909E+00  9.636E+00  7.227E-02  1.955E+00
   1    3    6     3     2    1.7175E+00  2.4905E-01   1.4684E+00  0.000E+00  0.000E+00  0.000E+00  1.07264E+03  1.727E+00  8.909E+00  6.682E-02  1.864E+00
   1    3    7     3     3    1.4684E+00  1.9718E-01   1.2712E+00  0.000E+00  0.000E+00  0.000E+00  1.06987E+03  1.555E+00  8.218E+00  5.547E-02  1.777E+00
   1    4    8     3     4    1.2712E+00  2.2567E-01   1.0456E+00  0.000E+00  0.000E+00  0.000E+00  1.06682E+03  1.364E+00  7.455E+00  6.709E-02  1.682E+00
   1    5    8     3     5    1.0456E+00  1.5790E-01   8.8768E-01  0.000E+00  0.000E+00  0.000E+00  1.06362E+03  1.164E+00  6.655E+00  4.991E-02  1.582E+00
   1    6    8     3     6    8.8768E-01  5.5980E-02   8.3170E-01  0.000E+00  0.000E+00  0.000E+00  1.06158E+03  1.036E+00  6.145E+00  1.844E-02  1.518E+00
   1    5   10     4     1    1.0000E+01  9.0919E-02   9.9091E+00  0.000E+00  0.000E+00  0.000E+00  1.07836E+03  6.368E-01  1.000E+01  2.500E-02  1.212E+00
   1    5    9     4     2    9.9091E+00  1.8158E-01   9.7275E+00  0.000E+00  0.000E+00  0.000E+00  1.07154E+03  6.315E-01  1.000E+01  5.000E-02  1.211E+00
   1    6    8     4     3    9.7275E+00  1.2689E-01   9.6006E+00  0.000E+00  0.000E+00  0.000E+00  1.06381E+03  6.256E-01  1.000E+01  3.500E-02  1.209E+00
   1    6    8     5     1    1.0432E+01  2.2686E-01   1.0205E+01  0.000E+00  0.000E+00  0.000E+00  1.05868E+03  6.790E-01  1.542E+01  6.166E-02  1.226E+00
   1    7    7     5     2    1.0205E+01  2.7894E-01   9.9265E+00  0.000E+00  0.000E+00  0.000E+00  1.05417E+03  6.732E-01  1.519E+01  7.594E-02  1.224E+00
   1    8    7     5     3    9.9265E+00  1.9221E-01   9.7343E+00  0.000E+00  0.000E+00  0.000E+00  1.04992E+03  6.676E-01  1.497E+01  5.241E-02  1.223E+00
   1    8    6     5     4    9.7343E+00  1.3577E-01   9.5985E+00  0.000E+00  0.000E+00  0.000E+00  1.04691E+03  6.637E-01  1.482E+01  3.706E-02  1.221E+00
   1    9    6     6     1    3.4547E+01  2.6883E-01   3.4278E+01  0.000E+00  0.000E+00  0.000E+00  1.04421E+03  1.480E+00  1.200E+01  6.000E-02  1.493E+00
   1   10    7     6     2    3.4278E+01  2.6841E-01   3.4010E+01  0.000E+00  0.000E+00  0.000E+00  1.03966E+03  1.474E+00  1.200E+01  6.000E-02  1.491E+00
   1   11    7     6     3    3.4010E+01  2.6799E-01   3.3742E+01  0.000E+00  0.000E+00  0.000E+00  1.03510E+03  1.467E+00  1.200E+01  6.000E-02  1.489E+00
   1   12    7     6     4    3.3742E+01  2.6758E-01   3.3474E+01  0.000E+00  0.000E+00  0.000E+00  1.03055E+03  1.460E+00  1.200E+01  6.000E-02  1.487E+00
   1   13    7     6     5    3.3474E+01  1.5807E-02   3.3459E+01  0.000E+00  0.000E+00  0.000E+00  1.02736E+03  1.456E+00  1.200E+01  2.400E-02  2.195E-01
   1   14    9     7     1    1.5000E+02  1.3787E+00   1.4862E+02  0.000E+00  0.000E+00  0.000E+00  1.03987E+03  2.288E+00  5.529E+01  5.593E-01  8.217E-01
   1   13    8     7     2    1.4862E+02  1.9586E+00   1.4666E+02  0.000E+00  0.000E+00  0.000E+00  1.03478E+03  2.279E+00  5.525E+01  6.147E-01  1.062E+00
   1   13    7     7     3    1.4666E+02  1.6651E+00   1.4500E+02  0.000E+00  0.000E+00  0.000E+00  1.02969E+03  2.269E+00  5.521E+01  5.584E-01  9.940E-01
   1   13    6     8     1    1.7846E+02  1.1436E+00   1.7731E+02  0.000E+00  0.000E+00  0.000E+00  1.02488E+03  3.003E+00  4.355E+01  4.437E-01  8.590E-01
   1   13    5     8     2    1.7731E+02  3.6030E-01   1.7695E+02  0.000E+00  0.000E+00  0.000E+00  1.01862E+03  2.998E+00  4.348E+01  4.430E-01  2.711E-01
   1   13    4     8     3    1.7695E+02 -1.8668E+00   1.7882E+02  0.000E+00  0.000E+00  0.000E+00  1.01238E+03  3.003E+00  4.355E+01  4.437E+00 -1.402E-01
   1   13    3     8     4    1.7882E+02 -3.3557E+00   1.8217E+02  0.000E+00  0.000E+00  0.000E+00  1.00614E+03  3.020E+00  4.378E+01  4.462E+00 -2.507E-01
   1   13    2     8     5    1.8217E+02 -2.4621E+00   1.8464E+02  0.000E+00  0.000E+00  0.000E+00  9.99913E+02  3.038E+00  4.405E+01  4.489E+00 -1.828E-01
   1   13    1     8     6    1.8464E+02 -1.9163E+00   1.8655E+02  0.000E+00  0.000E+00  0.000E+00  9.94926E+02  3.051E+00  4.424E+01  2.705E+00 -2.361E-01
   1    8    6     9     1    7.2736E+00  0.0000E+00   7.2736E+00  0.000E+00  0.000E+00  0.000E+00  1.08061E+03  1.864E+00  4.000E+00  0.000E+00  1.621E+00
   1    8    5     9     2    7.2736E+00  0.0000E+00   7.2736E+00  0.000E+00  0.000E+00  0.000E+00  1.08011E+03  1.864E+00  4.000E+00  0.000E+00  1.621E+00





UNSATURATED ZONE PACKAGE VOLUMETRIC BUDGET FOR  TIME STEP    30 STRESS PERIOD   30
  ------------------------------------------------------------------------------



     CUMULATIVE VOLUMES      L**3       RATES FOR THIS TIME STEP      L**3/T
     ------------------                 ------------------------

           IN:                                      IN:
           ---                                      ---
        INFILTRATION =  1154181853.3943          INFILTRATION =          11.6812

          OUT:                                     OUT:
          ----                                     ----
              UZF ET =  1059252228.3986                UZF ET =          11.5819
        UZF RECHARGE =      717884.2805          UZF RECHARGE =           0.0131

            IN - OUT =    94211740.7152              IN - OUT =       8.6278E-02

          STORAGE:                                 STORAGE:
          --------                                 --------
      STORAGE CHANGE =    94211725.5900        STORAGE CHANGE =       8.6278E-02

 PERCENT DISCREPANCY IS DIFFERENCE BETWEEN IN-OUT MINUS CHANGE IN STORAGE
 DIVIDED BY THE AVERAGE OF IN AND OUT TIMES 100

 PERCENT DISCREPANCY =           0.00     PERCENT DISCREPANCY =           0.00






1
  VOLUMETRIC BUDGET FOR AGRICULTURAL FIELDS AT  END OF TIME STEP   30, STRESS PERIOD  30
  ------------------------------------------------------------------------------

     CUMULATIVE VOLUMES      L**3       RATES FOR THIS TIME STEP      L**3/T
     ------------------                 ------------------------

           IN:                                      IN:
           ---                                      ---
               AG WELLS  =   419684928.0000                 AG WELLS  =           0.0000
      DIVERSION SEGMENTS =   398255744.0000        DIVERSION SEGMENTS =           7.2736
           GW IRRIGATION =           0.0000             GW IRRIGATION =           0.0000
           SW IRRIGATION =           0.0000             SW IRRIGATION =           0.0000
        SYSTEM LOSSES GW =           0.0000          SYSTEM LOSSES GW =           0.0000
        SYSTEM LOSSES SW =           0.0000          SYSTEM LOSSES SW =           0.0000

                TOTAL IN =   817940672.0000                  TOTAL IN =           7.2736

          OUT:                                     OUT:
          ----                                     ----
               AG WELLS  =           0.0000                 AG WELLS  =           0.0000
      DIVERSION SEGMENTS =           0.0000        DIVERSION SEGMENTS =           0.0000
           GW IRRIGATION =   419684928.0000             GW IRRIGATION =           0.0000
           SW IRRIGATION =   398263872.0000             SW IRRIGATION =           7.2737
        SYSTEM LOSSES GW =           0.0000          SYSTEM LOSSES GW =           0.0000
        SYSTEM LOSSES SW =           0.0000          SYSTEM LOSSES SW =           0.0000

               TOTAL OUT =   817948800.0000                 TOTAL OUT =           7.2737

                IN - OUT =       -8128.0000                  IN - OUT =      -1.4496E-04

     PERCENT DISCREPANCY =          -0.00         PERCENT DISCREPANCY =          -0.00



1
  VOLUMETRIC BUDGET FOR ENTIRE MODEL AT END OF TIME STEP   30, STRESS PERIOD  30
  ------------------------------------------------------------------------------

     CUMULATIVE VOLUMES      L**3       RATES FOR THIS TIME STEP      L**3/T
     ------------------                 ------------------------

           IN:                                      IN:
           ---                                      ---
             STORAGE     =   634203840.0000               STORAGE     =           1.1813
       CONSTANT HEAD     =           0.0000         CONSTANT HEAD     =           0.0000
     HEAD DEP BOUNDS     =    22002574.0000       HEAD DEP BOUNDS     =           0.2887
      STREAM LEAKAGE     =   897483776.0000        STREAM LEAKAGE     =          12.8980
        UZF RECHARGE     =      717884.3750          UZF RECHARGE     =       1.3092E-02
               GW ET     =           0.0000                 GW ET     =           0.0000
     SURFACE LEAKAGE     =           0.0000       SURFACE LEAKAGE     =           0.0000
           AG WELLS      =           0.0000             AG WELLS      =           0.0000

                TOTAL IN =  1554407936.0000                  TOTAL IN =          14.3811

          OUT:                                     OUT:
          ----                                     ----
             STORAGE     =   336524768.0000               STORAGE     =           4.4902
       CONSTANT HEAD     =           0.0000         CONSTANT HEAD     =           0.0000
     HEAD DEP BOUNDS     =    21987712.0000       HEAD DEP BOUNDS     =           0.2901
      STREAM LEAKAGE     =   776177408.0000        STREAM LEAKAGE     =           9.6010
        UZF RECHARGE     =           0.0000          UZF RECHARGE     =           0.0000
               GW ET     =           0.0000                 GW ET     =           0.0000
     SURFACE LEAKAGE     =           0.0000       SURFACE LEAKAGE     =           0.0000
           AG WELLS      =   419684928.0000             AG WELLS      =           0.0000

               TOTAL OUT =  1554374912.0000                 TOTAL OUT =          14.3813

                IN - OUT =       33024.0000                  IN - OUT =      -2.4891E-04

     PERCENT DISCREPANCY =           0.00         PERCENT DISCREPANCY =          -0.00






         TIME SUMMARY AT END OF TIME STEP   30 IN STRESS PERIOD   30
                    SECONDS     MINUTES      HOURS       DAYS        YEARS
                    -----------------------------------------------------------
   TIME STEP LENGTH  87667.      1461.1      24.352      1.0147     2.77799E-03
 STRESS PERIOD TIME 2.63000E+06  43833.      730.56      30.440     8.33397E-02
         TOTAL TIME 7.63565E+07 1.27261E+06  21210.      883.76      2.4196    
1
1
                            STRESS PERIOD NO.   31, LENGTH =   2630000.    
                            -----------------------------------------------

                              NUMBER OF TIME STEPS =    30

                               MULTIPLIER FOR DELT =     1.000

                            INITIAL TIME STEP SIZE =   87666.66    

 REUSING NON-PARAMETER GHB CELLS FROM LAST STRESS PERIOD

      2 GHB CELLS

 REUSING STREAM SEGMENT DATA FROM LAST STRESS PERIOD



            AREAL INFILTRATION RATE
 READING ON UNIT   19 WITH FORMAT: (10F4.0)            

            1           2           3           4           5           6           7           8           9          10
 ........................................................................................................................
   1   1.2000E-09   0.000       0.000       0.000       0.000       0.000       0.000       0.000       0.000       0.000    
   2   2.1000E-09  2.0000E-09  8.0000E-10  8.5000E-09   0.000       0.000       0.000       0.000       0.000       0.000    
   3   5.0000E-10  1.1000E-09  8.8000E-09  5.5000E-09   0.000       0.000       0.000       0.000       0.000       0.000    
   4   8.5000E-09  1.1000E-09  1.1000E-09  1.1000E-09  2.0000E-09   0.000       0.000       0.000       0.000       0.000    
   5   8.5000E-09  1.1000E-09  1.1000E-09  1.1000E-09  1.1000E-09   0.000       0.000       0.000       0.000       0.000    
   6   8.5000E-09  5.2000E-09  2.1000E-09  1.1000E-09  1.5000E-09   0.000       0.000       0.000       0.000       0.000    
   7   8.5000E-09  5.2000E-09  2.1000E-09  1.2000E-09  2.0000E-09   0.000       0.000       0.000       0.000       0.000    
   8   5.0000E-10  5.2000E-09  2.1000E-09  1.2000E-09  5.0000E-09   0.000       0.000       0.000       0.000       0.000    
   9   5.0000E-10  5.2000E-09  2.1000E-09  1.2000E-09  5.0000E-09   0.000       0.000       0.000       0.000       0.000    
  10   5.0000E-10  5.2000E-09  2.1000E-09  1.2000E-09  5.8000E-09   0.000       0.000       0.000       0.000       0.000    
  11   1.0000E-10  1.1000E-09  1.1000E-09  1.2000E-09  5.0000E-09   0.000       0.000       0.000       0.000       0.000    
  12   1.1000E-09  1.1000E-09  1.1000E-09  1.1000E-09  2.0000E-09   0.000       0.000       0.000       0.000       0.000    
  13   1.1000E-09  2.2000E-09  2.2000E-09  2.1000E-09  1.0000E-09   0.000       0.000       0.000       0.000       0.000    
  14   2.0000E-10  5.5000E-09  5.5000E-09  5.2000E-09  1.0000E-09   0.000       0.000       0.000       0.000       0.000    
  15    0.000      8.8000E-09  8.8000E-09   0.000       0.000       0.000       0.000       0.000       0.000       0.000    

                  ET RATE =  1.500000E-07

 USING ET EXTINCTION DEPTH FROM PREVIOUS STRESS PERIOD. CURRENT PERIOD IS:      31

 USING EXTINCTION WATER CONTENT FROM PREVIOUS STRESS PERIOD. CURRENT PERIOD IS:      31

 USING AIR ENTRY PRESSURE FROM PREVIOUS STRESS PERIOD. CURRENT PERIOD IS:      31

 USING ROOT PRESSURE HEAD FROM PREVIOUS STRESS PERIOD. CURRENT PERIOD IS:      31

 USING ROOT ACTIVITY FROM PREVIOUS STRESS PERIOD. CURRENT PERIOD IS:      31

 PROCESSING AG STRESS PERIOD DATA

 READING AG STRESS PERIOD DATA

 READING IRRIGATION SEGMENT

 READING IRRIGATION WELL

 READING SUPPLEMENTAL WELL

 END PROCESSING AG STRESS PERIOD DATA OPTIONS
 
 SOLVING FOR HEAD 
                                                   Max.-Head-Change                         Max.-Flux-Residual
  Residual-Control   Outer-Iter.   Inner-Iter.     Column Row Layer    Maximum-Head-Change  Column Row Layer    Maximum-Flux-Residual          L2-NORM 
          0                 1           2             4    7     1       0.4668803530E-02       4    7    1         0.2438577594E+00      0.8220801585E+00
          0                 2           2             4   13     1      -0.7200387282E-02       4   13    1        -0.4237235580E+00      0.7401157560E+00
          0                 3           2             2   13     1       0.3552387937E-03       2   13    1         0.2124814344E-01      0.2619911180E-01
          0                 4           1             2   13     1      -0.5746893297E-04       2   13    1        -0.3513533316E-02      0.5691283493E-02

    ------------------------------------------------
       NWT REQUIRED            4 OUTER ITERATIONS 
       AND A TOTAL OF          7 INNER ITERATIONS.
    ------------------------------------------------

 NO OUTPUT CONTROL FOR STRESS PERIOD   31   TIME STEP    1
 
 SOLVING FOR HEAD 
                                                   Max.-Head-Change                         Max.-Flux-Residual
  Residual-Control   Outer-Iter.   Inner-Iter.     Column Row Layer    Maximum-Head-Change  Column Row Layer    Maximum-Flux-Residual          L2-NORM 
          0                 1           2             4    7     1       0.4644447454E-02       4    7    1         0.2425812662E+00      0.7899490504E+00
          0                 2           2             4   13     1      -0.7465255835E-02       4   13    1        -0.4391851779E+00      0.7511061952E+00
          0                 3           2             4   13     1      -0.3527494618E-03       4   13    1        -0.2074586208E-01      0.3659388164E-01
          0                 4           2             4   13     1      -0.2543351981E-03       4   13    1        -0.1495723584E-01      0.2536815585E-01
          0                 5           1             4   13     1      -0.8546345875E-04       4   13    1        -0.5025671036E-02      0.8565709372E-02

    ------------------------------------------------
       NWT REQUIRED            5 OUTER ITERATIONS 
       AND A TOTAL OF          9 INNER ITERATIONS.
    ------------------------------------------------

 NO OUTPUT CONTROL FOR STRESS PERIOD   31   TIME STEP    2
 
 SOLVING FOR HEAD 
                                                   Max.-Head-Change                         Max.-Flux-Residual
  Residual-Control   Outer-Iter.   Inner-Iter.     Column Row Layer    Maximum-Head-Change  Column Row Layer    Maximum-Flux-Residual          L2-NORM 
          0                 1           2             4    7     1       0.4620483756E-02       4    7    1         0.2413257671E+00      0.7989752389E+00
          0                 2           2             4   13     1      -0.7553347687E-02       4   13    1        -0.4443941163E+00      0.7581122986E+00
          0                 3           2             4   13     1      -0.4166440316E-03       4   13    1        -0.2450159343E-01      0.4299896530E-01
          0                 4           2             4   13     1      -0.2744075439E-03       4   13    1        -0.1613724654E-01      0.2736170060E-01
          0                 5           1             4   13     1      -0.8749476070E-04       4   13    1        -0.5144922693E-02      0.8766222487E-02

    ------------------------------------------------
       NWT REQUIRED            5 OUTER ITERATIONS 
       AND A TOTAL OF          9 INNER ITERATIONS.
    ------------------------------------------------

 NO OUTPUT CONTROL FOR STRESS PERIOD   31   TIME STEP    3
 
 SOLVING FOR HEAD 
                                                   Max.-Head-Change                         Max.-Flux-Residual
  Residual-Control   Outer-Iter.   Inner-Iter.     Column Row Layer    Maximum-Head-Change  Column Row Layer    Maximum-Flux-Residual          L2-NORM 
          0                 1           2             4    7     1       0.4596493135E-02       4    7    1         0.2400685725E+00      0.8109410615E+00
          0                 2           2             4   13     1      -0.7631928685E-02       4   13    1        -0.4490403434E+00      0.7644281026E+00
          0                 3           2             4   13     1      -0.4212394236E-03       4   13    1        -0.2477029167E-01      0.4354042355E-01
          0                 4           2             4   13     1      -0.2767632087E-03       4   13    1        -0.1627584263E-01      0.2758368383E-01
          0                 5           1             4   13     1      -0.8399315609E-04       4   13    1        -0.4939010782E-02      0.8417945084E-02

    ------------------------------------------------
       NWT REQUIRED            5 OUTER ITERATIONS 
       AND A TOTAL OF          9 INNER ITERATIONS.
    ------------------------------------------------

 NO OUTPUT CONTROL FOR STRESS PERIOD   31   TIME STEP    4
 
 SOLVING FOR HEAD 
                                                   Max.-Head-Change                         Max.-Flux-Residual
  Residual-Control   Outer-Iter.   Inner-Iter.     Column Row Layer    Maximum-Head-Change  Column Row Layer    Maximum-Flux-Residual          L2-NORM 
          0                 1           2             4    7     1       0.4572890575E-02       4    7    1         0.2388320303E+00      0.8247596185E+00
          0                 2           2             4   13     1      -0.7703232351E-02       4   13    1        -0.4532551109E+00      0.7702468201E+00
          0                 3           2             4   13     1      -0.4242663404E-03       4   13    1        -0.2494696147E-01      0.4396915821E-01
          0                 4           2             4   13     1      -0.2790516047E-03       4   13    1        -0.1641050467E-01      0.2779701329E-01
          0                 5           1             4   13     1      -0.8252924434E-04       4   13    1        -0.4852912790E-02      0.8274084659E-02

    ------------------------------------------------
       NWT REQUIRED            5 OUTER ITERATIONS 
       AND A TOTAL OF          9 INNER ITERATIONS.
    ------------------------------------------------

 NO OUTPUT CONTROL FOR STRESS PERIOD   31   TIME STEP    5
 
 SOLVING FOR HEAD 
                                                   Max.-Head-Change                         Max.-Flux-Residual
  Residual-Control   Outer-Iter.   Inner-Iter.     Column Row Layer    Maximum-Head-Change  Column Row Layer    Maximum-Flux-Residual          L2-NORM 
          0                 1           2             4    7     1       0.4549395843E-02       4    7    1         0.2376009097E+00      0.8396830883E+00
          0                 2           2             4   13     1      -0.7767662384E-02       4   13    1        -0.4570623926E+00      0.7755974515E+00
          0                 3           2             4   13     1      -0.4267347912E-03       4   13    1        -0.2509288866E-01      0.4427726607E-01
          0                 4           2             4   13     1      -0.2814061512E-03       4   13    1        -0.1654896303E-01      0.2802365967E-01
          0                 5           1             4   13     1      -0.8337151524E-04       4   13    1        -0.4902509750E-02      0.8355423699E-02

    ------------------------------------------------
       NWT REQUIRED            5 OUTER ITERATIONS 
       AND A TOTAL OF          9 INNER ITERATIONS.
    ------------------------------------------------

 NO OUTPUT CONTROL FOR STRESS PERIOD   31   TIME STEP    6
 
 SOLVING FOR HEAD 
                                                   Max.-Head-Change                         Max.-Flux-Residual
  Residual-Control   Outer-Iter.   Inner-Iter.     Column Row Layer    Maximum-Head-Change  Column Row Layer    Maximum-Flux-Residual          L2-NORM 
          0                 1           2             4    7     1       0.4526140924E-02       4   13    1         0.2459769581E+00      0.8551510489E+00
          0                 2           2             4   13     1      -0.7826012196E-02       4   13    1        -0.4605093058E+00      0.7805064408E+00
          0                 3           2             4   13     1      -0.4283633316E-03       4   13    1        -0.2518760753E-01      0.4451175817E-01
          0                 4           2             4   13     1      -0.2839412855E-03       4   13    1        -0.1669810653E-01      0.2826795593E-01
          0                 5           1             4   13     1      -0.8427517803E-04       4   13    1        -0.4955666152E-02      0.8441895855E-02

    ------------------------------------------------
       NWT REQUIRED            5 OUTER ITERATIONS 
       AND A TOTAL OF          9 INNER ITERATIONS.
    ------------------------------------------------

 NO OUTPUT CONTROL FOR STRESS PERIOD   31   TIME STEP    7
 
 SOLVING FOR HEAD 
                                                   Max.-Head-Change                         Max.-Flux-Residual
  Residual-Control   Outer-Iter.   Inner-Iter.     Column Row Layer    Maximum-Head-Change  Column Row Layer    Maximum-Flux-Residual          L2-NORM 
          0                 1           2             4   13     1       0.4715794041E-02       4   13    1         0.2712763641E+00      0.8707494439E+00
          0                 2           2             4   13     1      -0.7878897029E-02       4   13    1        -0.4636324387E+00      0.7850677506E+00
          0                 3           2             4   13     1      -0.4291986524E-03       4   13    1        -0.2523580724E-01      0.4461891558E-01
          0                 4           2             4   13     1      -0.2866962421E-03       4   13    1        -0.1686018323E-01      0.2853500094E-01
          0                 5           1             4   13     1      -0.8506930052E-04       4   13    1        -0.5002315369E-02      0.8524548614E-02

    ------------------------------------------------
       NWT REQUIRED            5 OUTER ITERATIONS 
       AND A TOTAL OF          9 INNER ITERATIONS.
    ------------------------------------------------

 NO OUTPUT CONTROL FOR STRESS PERIOD   31   TIME STEP    8
 
 SOLVING FOR HEAD 
                                                   Max.-Head-Change                         Max.-Flux-Residual
  Residual-Control   Outer-Iter.   Inner-Iter.     Column Row Layer    Maximum-Head-Change  Column Row Layer    Maximum-Flux-Residual          L2-NORM 
          0                 1           2             4   13     1       0.5113540378E-02       4   13    1         0.2941935597E+00      0.8861644858E+00
          0                 2           2             4   13     1      -0.7926841806E-02       4   13    1        -0.4664629236E+00      0.7892486731E+00
          0                 3           2             4   13     1      -0.4293930431E-03       4   13    1        -0.2524646109E-01      0.4467705768E-01
          0                 4           2             4   13     1      -0.2895720586E-03       4   13    1        -0.1702933874E-01      0.2881601467E-01
          0                 5           1             4   13     1      -0.8592329492E-04       4   13    1        -0.5052517399E-02      0.8610193934E-02

    ------------------------------------------------
       NWT REQUIRED            5 OUTER ITERATIONS 
       AND A TOTAL OF          9 INNER ITERATIONS.
    ------------------------------------------------

 NO OUTPUT CONTROL FOR STRESS PERIOD   31   TIME STEP    9
 
 SOLVING FOR HEAD 
                                                   Max.-Head-Change                         Max.-Flux-Residual
  Residual-Control   Outer-Iter.   Inner-Iter.     Column Row Layer    Maximum-Head-Change  Column Row Layer    Maximum-Flux-Residual          L2-NORM 
          0                 1           2             4   13     1       0.5474161614E-02       4   13    1         0.3149642210E+00      0.9011882369E+00
          0                 2           2             4   13     1      -0.7970223867E-02       4   13    1        -0.4690232064E+00      0.7930984114E+00
          0                 3           2             4   13     1      -0.4291360713E-03       4   13    1        -0.2523074682E-01      0.4467899528E-01
          0                 4           2             4   13     1      -0.2925522925E-03       4   13    1        -0.1720462559E-01      0.2910878114E-01
          0                 5           1             4   13     1      -0.8680783910E-04       4   13    1        -0.5104541769E-02      0.8696737322E-02

    ------------------------------------------------
       NWT REQUIRED            5 OUTER ITERATIONS 
       AND A TOTAL OF          9 INNER ITERATIONS.
    ------------------------------------------------

 NO OUTPUT CONTROL FOR STRESS PERIOD   31   TIME STEP   10
 
 SOLVING FOR HEAD 
                                                   Max.-Head-Change                         Max.-Flux-Residual
  Residual-Control   Outer-Iter.   Inner-Iter.     Column Row Layer    Maximum-Head-Change  Column Row Layer    Maximum-Flux-Residual          L2-NORM 
          0                 1           2             4   13     1       0.5801178111E-02       4   13    1         0.3337924100E+00      0.9156571536E+00
          0                 2           2             4   13     1      -0.8009677061E-02       4   13    1        -0.4713508617E+00      0.7966491597E+00
          0                 3           2             4   13     1      -0.4282549641E-03       4   13    1        -0.2517836522E-01      0.4462139186E-01
          0                 4           2             4   13     1      -0.2956504840E-03       4   13    1        -0.1738683516E-01      0.2941483644E-01
          0                 5           1             4   13     1      -0.8768684560E-04       4   13    1        -0.5156198638E-02      0.8785221297E-02

    ------------------------------------------------
       NWT REQUIRED            5 OUTER ITERATIONS 
       AND A TOTAL OF          9 INNER ITERATIONS.
    ------------------------------------------------

 NO OUTPUT CONTROL FOR STRESS PERIOD   31   TIME STEP   11
 
 SOLVING FOR HEAD 
                                                   Max.-Head-Change                         Max.-Flux-Residual
  Residual-Control   Outer-Iter.   Inner-Iter.     Column Row Layer    Maximum-Head-Change  Column Row Layer    Maximum-Flux-Residual          L2-NORM 
          0                 1           2             4   13     1       0.6097776933E-02       4   13    1         0.3508627851E+00      0.9294855109E+00
          0                 2           2             4   13     1      -0.8045364450E-02       4   13    1        -0.4734556671E+00      0.7999135357E+00
          0                 3           2             4   13     1      -0.4288511923E-03       4   13    1        -0.2521296582E-01      0.4475713929E-01
          0                 4           2             4   13     1      -0.2972160908E-03       4   13    1        -0.1747892068E-01      0.2956728463E-01
          0                 5           1             4   13     1      -0.8816655618E-04       4   13    1        -0.5184398590E-02      0.8836205016E-02

    ------------------------------------------------
       NWT REQUIRED            5 OUTER ITERATIONS 
       AND A TOTAL OF          9 INNER ITERATIONS.
    ------------------------------------------------

 NO OUTPUT CONTROL FOR STRESS PERIOD   31   TIME STEP   12
 
 SOLVING FOR HEAD 
                                                   Max.-Head-Change                         Max.-Flux-Residual
  Residual-Control   Outer-Iter.   Inner-Iter.     Column Row Layer    Maximum-Head-Change  Column Row Layer    Maximum-Flux-Residual          L2-NORM 
          0                 1           2             4   13     1       0.6367046823E-02       4   13    1         0.3663543823E+00      0.9426047115E+00
          0                 2           2             4   13     1      -0.8077763650E-02       4   13    1        -0.4753658883E+00      0.8029238137E+00
          0                 3           2             4   13     1      -0.4295319066E-03       4   13    1        -0.2525262686E-01      0.4484212773E-01
          0                 4           2             4   13     1      -0.2983019924E-03       4   13    1        -0.1754280591E-01      0.2967239509E-01
          0                 5           1             4   13     1      -0.8852322702E-04       4   13    1        -0.5205358217E-02      0.8872173274E-02

    ------------------------------------------------
       NWT REQUIRED            5 OUTER ITERATIONS 
       AND A TOTAL OF          9 INNER ITERATIONS.
    ------------------------------------------------

 NO OUTPUT CONTROL FOR STRESS PERIOD   31   TIME STEP   13
 
 SOLVING FOR HEAD 
                                                   Max.-Head-Change                         Max.-Flux-Residual
  Residual-Control   Outer-Iter.   Inner-Iter.     Column Row Layer    Maximum-Head-Change  Column Row Layer    Maximum-Flux-Residual          L2-NORM 
          0                 1           2             4   13     1       0.6611440244E-02       4   13    1         0.3804090613E+00      0.9549920592E+00
          0                 2           2             4   13     1      -0.8107108018E-02       4   13    1        -0.4770953618E+00      0.8056956603E+00
          0                 3           2             4   13     1      -0.4300248360E-03       4   13    1        -0.2528133292E-01      0.4490305256E-01
          0                 4           2             4   13     1      -0.2992031312E-03       4   13    1        -0.1759578649E-01      0.2976289284E-01
          0                 5           1             4   13     1      -0.8882744638E-04       4   13    1        -0.5223245402E-02      0.8901965734E-02

    ------------------------------------------------
       NWT REQUIRED            5 OUTER ITERATIONS 
       AND A TOTAL OF          9 INNER ITERATIONS.
    ------------------------------------------------

 NO OUTPUT CONTROL FOR STRESS PERIOD   31   TIME STEP   14
 
 SOLVING FOR HEAD 
                                                   Max.-Head-Change                         Max.-Flux-Residual
  Residual-Control   Outer-Iter.   Inner-Iter.     Column Row Layer    Maximum-Head-Change  Column Row Layer    Maximum-Flux-Residual          L2-NORM 
          0                 1           2             4   13     1       0.6833311649E-02       4   13    1         0.3931633096E+00      0.9666211866E+00
          0                 2           2             4   13     1      -0.8133721365E-02       4   13    1        -0.4786633322E+00      0.8082455880E+00
          0                 3           2             4   13     1      -0.4303924817E-03       4   13    1        -0.2530273863E-01      0.4494921871E-01
          0                 4           2             4   13     1      -0.3000101319E-03       4   13    1        -0.1764323821E-01      0.2984228059E-01
          0                 5           1             4   13     1      -0.8906015806E-04       4   13    1        -0.5236907511E-02      0.8926541839E-02

    ------------------------------------------------
       NWT REQUIRED            5 OUTER ITERATIONS 
       AND A TOTAL OF          9 INNER ITERATIONS.
    ------------------------------------------------

 NO OUTPUT CONTROL FOR STRESS PERIOD   31   TIME STEP   15
 
 SOLVING FOR HEAD 
                                                   Max.-Head-Change                         Max.-Flux-Residual
  Residual-Control   Outer-Iter.   Inner-Iter.     Column Row Layer    Maximum-Head-Change  Column Row Layer    Maximum-Flux-Residual          L2-NORM 
          0                 1           2             4   13     1       0.7034755101E-02       4   13    1         0.4047383448E+00      0.9775048618E+00
          0                 2           2             4   13     1      -0.8169665205E-02       4   13    1        -0.4807773330E+00      0.8117687856E+00
          0                 3           2             4   13     1      -0.4217188846E-03       4   13    1        -0.2479238779E-01      0.4410065342E-01
          0                 4           2             4   13     1      -0.2986052848E-03       4   13    1        -0.1756060875E-01      0.2970118918E-01
          0                 5           1             4   13     1      -0.8850946446E-04       4   13    1        -0.5204535812E-02      0.8870385695E-02

    ------------------------------------------------
       NWT REQUIRED            5 OUTER ITERATIONS 
       AND A TOTAL OF          9 INNER ITERATIONS.
    ------------------------------------------------

 NO OUTPUT CONTROL FOR STRESS PERIOD   31   TIME STEP   16
 
 SOLVING FOR HEAD 
                                                   Max.-Head-Change                         Max.-Flux-Residual
  Residual-Control   Outer-Iter.   Inner-Iter.     Column Row Layer    Maximum-Head-Change  Column Row Layer    Maximum-Flux-Residual          L2-NORM 
          0                 1           2             4   13     1       0.7217914519E-02       4   13    1         0.4152584238E+00      0.9876553690E+00
          0                 2           2             4   13     1      -0.8188597560E-02       4   13    1        -0.4818926465E+00      0.8136366893E+00
          0                 3           2             4   13     1      -0.4237317321E-03       4   13    1        -0.2491065603E-01      0.4430422535E-01
          0                 4           2             4   13     1      -0.2995550791E-03       4   13    1        -0.1761646531E-01      0.2979659436E-01
          0                 5           1             4   13     1      -0.8879855648E-04       4   13    1        -0.5221513245E-02      0.8900658034E-02

    ------------------------------------------------
       NWT REQUIRED            5 OUTER ITERATIONS 
       AND A TOTAL OF          9 INNER ITERATIONS.
    ------------------------------------------------

 NO OUTPUT CONTROL FOR STRESS PERIOD   31   TIME STEP   17
 
 SOLVING FOR HEAD 
                                                   Max.-Head-Change                         Max.-Flux-Residual
  Residual-Control   Outer-Iter.   Inner-Iter.     Column Row Layer    Maximum-Head-Change  Column Row Layer    Maximum-Flux-Residual          L2-NORM 
          0                 1           2             4   13     1       0.7384164290E-02       4   13    1         0.4248028152E+00      0.9970974811E+00
          0                 2           2             4   13     1      -0.8205562545E-02       4   13    1        -0.4828915056E+00      0.8153519138E+00
          0                 3           2             4   13     1      -0.4256222436E-03       4   13    1        -0.2502177345E-01      0.4449344812E-01
          0                 4           2             4   13     1      -0.3004538379E-03       4   13    1        -0.1766930899E-01      0.2988643299E-01
          0                 5           1             4   13     1      -0.8909260386E-04       4   13    1        -0.5238798712E-02      0.8930989789E-02

    ------------------------------------------------
       NWT REQUIRED            5 OUTER ITERATIONS 
       AND A TOTAL OF          9 INNER ITERATIONS.
    ------------------------------------------------

 NO OUTPUT CONTROL FOR STRESS PERIOD   31   TIME STEP   18
 
 SOLVING FOR HEAD 
                                                   Max.-Head-Change                         Max.-Flux-Residual
  Residual-Control   Outer-Iter.   Inner-Iter.     Column Row Layer    Maximum-Head-Change  Column Row Layer    Maximum-Flux-Residual          L2-NORM 
          0                 1           2             4   13     1       0.7535487286E-02       4   13    1         0.4334864666E+00      0.1005860909E+01
          0                 2           2             4   13     1      -0.8221146804E-02       4   13    1        -0.4838087907E+00      0.8169403466E+00
          0                 3           2             4   13     1      -0.4274438959E-03       4   13    1        -0.2512887817E-01      0.4467344864E-01
          0                 4           2             4   13     1      -0.3012801863E-03       4   13    1        -0.1771788982E-01      0.2997066348E-01
          0                 5           1             4   13     1      -0.8934180995E-04       4   13    1        -0.5253446695E-02      0.8956080303E-02

    ------------------------------------------------
       NWT REQUIRED            5 OUTER ITERATIONS 
       AND A TOTAL OF          9 INNER ITERATIONS.
    ------------------------------------------------

 NO OUTPUT CONTROL FOR STRESS PERIOD   31   TIME STEP   19
 
 SOLVING FOR HEAD 
                                                   Max.-Head-Change                         Max.-Flux-Residual
  Residual-Control   Outer-Iter.   Inner-Iter.     Column Row Layer    Maximum-Head-Change  Column Row Layer    Maximum-Flux-Residual          L2-NORM 
          0                 1           2             4   13     1       0.7673065917E-02       4   13    1         0.4413775466E+00      0.1013978967E+01
          0                 2           2             4   13     1      -0.8239741058E-02       4   13    1        -0.4849018339E+00      0.8188545791E+00
          0                 3           2             4   13     1      -0.4257838892E-03       4   13    1        -0.2503121900E-01      0.4450944198E-01
          0                 4           2             4   13     1      -0.3012794474E-03       4   13    1        -0.1771783228E-01      0.2997137342E-01
          0                 5           1             4   13     1      -0.8930737508E-04       4   13    1        -0.5251420499E-02      0.8952590581E-02

    ------------------------------------------------
       NWT REQUIRED            5 OUTER ITERATIONS 
       AND A TOTAL OF          9 INNER ITERATIONS.
    ------------------------------------------------

 NO OUTPUT CONTROL FOR STRESS PERIOD   31   TIME STEP   20
 
 SOLVING FOR HEAD 
                                                   Max.-Head-Change                         Max.-Flux-Residual
  Residual-Control   Outer-Iter.   Inner-Iter.     Column Row Layer    Maximum-Head-Change  Column Row Layer    Maximum-Flux-Residual          L2-NORM 
          0                 1           2             4   13     1       0.7798186342E-02       4   13    1         0.4485506948E+00      0.1021476089E+01
          0                 2           2             4   13     1      -0.8249545303E-02       4   13    1        -0.4854787577E+00      0.8199140656E+00
          0                 3           2             4   13     1      -0.4295783620E-03       4   13    1        -0.2525441409E-01      0.4488219262E-01
          0                 4           2             4   13     1      -0.3024941857E-03       4   13    1        -0.1778925174E-01      0.3009360996E-01
          0                 5           1             4   13     1      -0.8971551301E-04       4   13    1        -0.5275417776E-02      0.8994309765E-02

    ------------------------------------------------
       NWT REQUIRED            5 OUTER ITERATIONS 
       AND A TOTAL OF          9 INNER ITERATIONS.
    ------------------------------------------------

 NO OUTPUT CONTROL FOR STRESS PERIOD   31   TIME STEP   21
 
 SOLVING FOR HEAD 
                                                   Max.-Head-Change                         Max.-Flux-Residual
  Residual-Control   Outer-Iter.   Inner-Iter.     Column Row Layer    Maximum-Head-Change  Column Row Layer    Maximum-Flux-Residual          L2-NORM 
          0                 1           2             4   13     1       0.7912077931E-02       4   13    1         0.4550767800E+00      0.1028391406E+01
          0                 2           2             4   13     1      -0.8263690399E-02       4   13    1        -0.4863097524E+00      0.8214165243E+00
          0                 3           2             4   13     1      -0.4291829256E-03       4   13    1        -0.2523118152E-01      0.4484120335E-01
          0                 4           2             4   13     1      -0.3027178565E-03       4   13    1        -0.1780238322E-01      0.3011744970E-01
          0                 5           1             4   13     1      -0.8977124705E-04       4   13    1        -0.5278690920E-02      0.8999815729E-02

    ------------------------------------------------
       NWT REQUIRED            5 OUTER ITERATIONS 
       AND A TOTAL OF          9 INNER ITERATIONS.
    ------------------------------------------------

 NO OUTPUT CONTROL FOR STRESS PERIOD   31   TIME STEP   22
 
 SOLVING FOR HEAD 
                                                   Max.-Head-Change                         Max.-Flux-Residual
  Residual-Control   Outer-Iter.   Inner-Iter.     Column Row Layer    Maximum-Head-Change  Column Row Layer    Maximum-Flux-Residual          L2-NORM 
          0                 1           2             4   13     1       0.8015876748E-02       4   13    1         0.4610215671E+00      0.1034767952E+01
          0                 2           2             4   13     1      -0.8276603206E-02       4   13    1        -0.4870679947E+00      0.8228086369E+00
          0                 3           2             4   13     1      -0.4288597544E-03       4   13    1        -0.2521223095E-01      0.4480453232E-01
          0                 4           2             4   13     1      -0.3029177507E-03       4   13    1        -0.1781429734E-01      0.3013089986E-01
          0                 5           1             4   13     1      -0.8982480053E-04       4   13    1        -0.5281643197E-02      0.9014180334E-02

    ------------------------------------------------
       NWT REQUIRED            5 OUTER ITERATIONS 
       AND A TOTAL OF          9 INNER ITERATIONS.
    ------------------------------------------------

 NO OUTPUT CONTROL FOR STRESS PERIOD   31   TIME STEP   23
 
 SOLVING FOR HEAD 
                                                   Max.-Head-Change                         Max.-Flux-Residual
  Residual-Control   Outer-Iter.   Inner-Iter.     Column Row Layer    Maximum-Head-Change  Column Row Layer    Maximum-Flux-Residual          L2-NORM 
          0                 1           2             4   13     1       0.8110428846E-02       4   13    1         0.4664338156E+00      0.1040632382E+01
          0                 2           2             4   13     1      -0.8288382044E-02       4   13    1        -0.4877593607E+00      0.8240949278E+00
          0                 3           2             4   13     1      -0.4285410989E-03       4   13    1        -0.2519353909E-01      0.4477010195E-01
          0                 4           2             4   13     1      -0.3031365194E-03       4   13    1        -0.1782695938E-01      0.3016250537E-01
          0                 5           1             4   13     1      -0.8984541323E-04       4   13    1        -0.5283017285E-02      0.9009547627E-02

    ------------------------------------------------
       NWT REQUIRED            5 OUTER ITERATIONS 
       AND A TOTAL OF          9 INNER ITERATIONS.
    ------------------------------------------------

 NO OUTPUT CONTROL FOR STRESS PERIOD   31   TIME STEP   24
 
 SOLVING FOR HEAD 
                                                   Max.-Head-Change                         Max.-Flux-Residual
  Residual-Control   Outer-Iter.   Inner-Iter.     Column Row Layer    Maximum-Head-Change  Column Row Layer    Maximum-Flux-Residual          L2-NORM 
          0                 1           2             4   13     1       0.8196725827E-02       4   13    1         0.4713709952E+00      0.1046014594E+01
          0                 2           2             4   13     1      -0.8299123064E-02       4   13    1        -0.4883895256E+00      0.8252848091E+00
          0                 3           2             4   13     1      -0.4283251906E-03       4   13    1        -0.2518092770E-01      0.4474221627E-01
          0                 4           2             4   13     1      -0.3033035809E-03       4   13    1        -0.1783675637E-01      0.3018120070E-01
          0                 5           1             4   13     1      -0.8990637876E-04       4   13    1        -0.5286627838E-02      0.9013849892E-02

    ------------------------------------------------
       NWT REQUIRED            5 OUTER ITERATIONS 
       AND A TOTAL OF          9 INNER ITERATIONS.
    ------------------------------------------------

 NO OUTPUT CONTROL FOR STRESS PERIOD   31   TIME STEP   25
 
 SOLVING FOR HEAD 
                                                   Max.-Head-Change                         Max.-Flux-Residual
  Residual-Control   Outer-Iter.   Inner-Iter.     Column Row Layer    Maximum-Head-Change  Column Row Layer    Maximum-Flux-Residual          L2-NORM 
          0                 1           2             4   13     1       0.8275467734E-02       4   13    1         0.4758732567E+00      0.1050954415E+01
          0                 2           2             4   13     1      -0.8309011702E-02       4   13    1        -0.4889694302E+00      0.8263897467E+00
          0                 3           2             4   13     1      -0.4280701694E-03       4   13    1        -0.2516598582E-01      0.4471493412E-01
          0                 4           2             4   13     1      -0.3034834744E-03       4   13    1        -0.1784731579E-01      0.3020010292E-01
          0                 5           1             4   13     1      -0.8994004274E-04       4   13    1        -0.5288595333E-02      0.9018631165E-02

    ------------------------------------------------
       NWT REQUIRED            5 OUTER ITERATIONS 
       AND A TOTAL OF          9 INNER ITERATIONS.
    ------------------------------------------------

 NO OUTPUT CONTROL FOR STRESS PERIOD   31   TIME STEP   26
 
 SOLVING FOR HEAD 
                                                   Max.-Head-Change                         Max.-Flux-Residual
  Residual-Control   Outer-Iter.   Inner-Iter.     Column Row Layer    Maximum-Head-Change  Column Row Layer    Maximum-Flux-Residual          L2-NORM 
          0                 1           2             4   13     1       0.8347347477E-02       4   13    1         0.4799809491E+00      0.1055480603E+01
          0                 2           2             4   13     1      -0.8317943682E-02       4   13    1        -0.4894929316E+00      0.8274088442E+00
          0                 3           2             4   13     1      -0.4279617113E-03       4   13    1        -0.2515973562E-01      0.4469474112E-01
          0                 4           2             4   13     1      -0.3036250365E-03       4   13    1        -0.1785561868E-01      0.3021579918E-01
          0                 5           1             4   13     1      -0.8999914741E-04       4   13    1        -0.5292068297E-02      0.9024473912E-02

    ------------------------------------------------
       NWT REQUIRED            5 OUTER ITERATIONS 
       AND A TOTAL OF          9 INNER ITERATIONS.
    ------------------------------------------------

 NO OUTPUT CONTROL FOR STRESS PERIOD   31   TIME STEP   27
 
 SOLVING FOR HEAD 
                                                   Max.-Head-Change                         Max.-Flux-Residual
  Residual-Control   Outer-Iter.   Inner-Iter.     Column Row Layer    Maximum-Head-Change  Column Row Layer    Maximum-Flux-Residual          L2-NORM 
          0                 1           2             4   13     1       0.8413026071E-02       4   13    1         0.4837319981E+00      0.1059624369E+01
          0                 2           2             4   13     1      -0.8326160139E-02       4   13    1        -0.4899742829E+00      0.8283557105E+00
          0                 3           2             4   13     1      -0.4255801702E-03       4   13    1        -0.2501983267E-01      0.4445039642E-01
          0                 4           2             4   13     1      -0.3036284610E-03       4   13    1        -0.1785577810E-01      0.3021906460E-01
          0                 5           1             4   13     1      -0.9000664338E-04       4   13    1        -0.5292507263E-02      0.9026619962E-02

    ------------------------------------------------
       NWT REQUIRED            5 OUTER ITERATIONS 
       AND A TOTAL OF          9 INNER ITERATIONS.
    ------------------------------------------------

 NO OUTPUT CONTROL FOR STRESS PERIOD   31   TIME STEP   28
 
 SOLVING FOR HEAD 
                                                   Max.-Head-Change                         Max.-Flux-Residual
  Residual-Control   Outer-Iter.   Inner-Iter.     Column Row Layer    Maximum-Head-Change  Column Row Layer    Maximum-Flux-Residual          L2-NORM 
          0                 1           2             4   13     1       0.8472841608E-02       4   13    1         0.4871459193E+00      0.1063389331E+01
          0                 2           2             4   13     1      -0.8333696286E-02       4   13    1        -0.4904155432E+00      0.8292352606E+00
          0                 3           2             4   13     1      -0.4256506813E-03       4   13    1        -0.2502405262E-01      0.4445149181E-01
          0                 4           2             4   13     1      -0.3037719809E-03       4   13    1        -0.1786422335E-01      0.3023414648E-01
          0                 5           1             4   13     1      -0.9006641334E-04       4   13    1        -0.5296020752E-02      0.9032126169E-02

    ------------------------------------------------
       NWT REQUIRED            5 OUTER ITERATIONS 
       AND A TOTAL OF          9 INNER ITERATIONS.
    ------------------------------------------------

 NO OUTPUT CONTROL FOR STRESS PERIOD   31   TIME STEP   29
 
 SOLVING FOR HEAD 
                                                   Max.-Head-Change                         Max.-Flux-Residual
  Residual-Control   Outer-Iter.   Inner-Iter.     Column Row Layer    Maximum-Head-Change  Column Row Layer    Maximum-Flux-Residual          L2-NORM 
          0                 1           2             4   13     1       0.8527604680E-02       4   13    1         0.4902696598E+00      0.1066824959E+01
          0                 2           2             4   13     1      -0.8340609883E-02       4   13    1        -0.4908201718E+00      0.8300478945E+00
          0                 3           2             4   13     1      -0.4257175623E-03       4   13    1        -0.2502809590E-01      0.4445343562E-01
          0                 4           2             4   13     1      -0.3039245285E-03       4   13    1        -0.1787317360E-01      0.3025012706E-01
          0                 5           1             4   13     1      -0.9008829848E-04       4   13    1        -0.5297303491E-02      0.9034745567E-02

    ------------------------------------------------
       NWT REQUIRED            5 OUTER ITERATIONS 
       AND A TOTAL OF          9 INNER ITERATIONS.
    ------------------------------------------------

 NO OUTPUT CONTROL FOR STRESS PERIOD   31   TIME STEP   30



 STREAM LISTING     PERIOD     31   STEP       30

 LAYER ROW COL. STREAM  RCH.  FLOW INTO     FLOW TO   FLOW OUT OF   OVRLND.     DIRECT     STREAM       STREAM     STREAM     STREAM   STREAMBED  STREAMBED
                SEG.NO.  NO.  STRM. RCH.    AQUIFER    STRM. RCH.    RUNOFF     PRECIP       ET          HEAD       DEPTH      WIDTH   CONDCTNC.   GRADIENT

   1    1    1     1     1    3.1124E+01  2.7164E-01   3.0852E+01  0.000E+00  0.000E+00  0.000E+00  1.09431E+03  1.259E+00  1.417E+01  6.378E-02  1.420E+00
   1    2    2     1     2    3.0852E+01  4.2045E-01   3.0432E+01  0.000E+00  0.000E+00  0.000E+00  1.08931E+03  1.256E+00  1.411E+01  9.879E-02  1.419E+00
   1    3    3     1     3    3.0432E+01  3.5834E-01   3.0074E+01  0.000E+00  0.000E+00  0.000E+00  1.08367E+03  1.252E+00  1.404E+01  8.427E-02  1.417E+00
   1    3    4     1     4    3.0074E+01  3.2975E-01   2.9744E+01  0.000E+00  0.000E+00  0.000E+00  1.07866E+03  1.249E+00  1.398E+01  7.761E-02  1.416E+00
   1    4    5     2     1    2.7744E+01  3.3390E-01   2.7410E+01  0.000E+00  0.000E+00  0.000E+00  1.07321E+03  1.281E+00  1.200E+01  7.800E-02  1.427E+00
   1    5    6     2     2    2.7410E+01  2.5635E-01   2.7154E+01  0.000E+00  0.000E+00  0.000E+00  1.06778E+03  1.273E+00  1.200E+01  6.000E-02  1.424E+00
   1    6    6     2     3    2.7154E+01  2.5592E-01   2.6898E+01  0.000E+00  0.000E+00  0.000E+00  1.06306E+03  1.265E+00  1.200E+01  6.000E-02  1.422E+00
   1    7    6     2     4    2.6898E+01  2.5549E-01   2.6642E+01  0.000E+00  0.000E+00  0.000E+00  1.05833E+03  1.258E+00  1.200E+01  6.000E-02  1.419E+00
   1    8    6     2     5    2.6642E+01  2.5506E-01   2.6387E+01  0.000E+00  0.000E+00  0.000E+00  1.05361E+03  1.251E+00  1.200E+01  6.000E-02  1.417E+00
   1    3    5     3     1    2.0000E+00  2.8252E-01   1.7175E+00  0.000E+00  0.000E+00  0.000E+00  1.07555E+03  1.909E+00  9.636E+00  7.227E-02  1.955E+00
   1    3    6     3     2    1.7175E+00  2.4905E-01   1.4684E+00  0.000E+00  0.000E+00  0.000E+00  1.07264E+03  1.727E+00  8.909E+00  6.682E-02  1.864E+00
   1    3    7     3     3    1.4684E+00  1.9718E-01   1.2712E+00  0.000E+00  0.000E+00  0.000E+00  1.06987E+03  1.555E+00  8.218E+00  5.547E-02  1.777E+00
   1    4    8     3     4    1.2712E+00  2.2567E-01   1.0456E+00  0.000E+00  0.000E+00  0.000E+00  1.06682E+03  1.364E+00  7.455E+00  6.709E-02  1.682E+00
   1    5    8     3     5    1.0456E+00  1.5790E-01   8.8768E-01  0.000E+00  0.000E+00  0.000E+00  1.06362E+03  1.164E+00  6.655E+00  4.991E-02  1.582E+00
   1    6    8     3     6    8.8768E-01  5.5980E-02   8.3170E-01  0.000E+00  0.000E+00  0.000E+00  1.06158E+03  1.036E+00  6.145E+00  1.844E-02  1.518E+00
   1    5   10     4     1    1.0000E+01  9.0919E-02   9.9091E+00  0.000E+00  0.000E+00  0.000E+00  1.07836E+03  6.368E-01  1.000E+01  2.500E-02  1.212E+00
   1    5    9     4     2    9.9091E+00  1.8158E-01   9.7275E+00  0.000E+00  0.000E+00  0.000E+00  1.07154E+03  6.315E-01  1.000E+01  5.000E-02  1.211E+00
   1    6    8     4     3    9.7275E+00  1.2689E-01   9.6006E+00  0.000E+00  0.000E+00  0.000E+00  1.06381E+03  6.256E-01  1.000E+01  3.500E-02  1.209E+00
   1    6    8     5     1    1.0432E+01  2.2686E-01   1.0205E+01  0.000E+00  0.000E+00  0.000E+00  1.05868E+03  6.790E-01  1.542E+01  6.166E-02  1.226E+00
   1    7    7     5     2    1.0205E+01  2.7894E-01   9.9265E+00  0.000E+00  0.000E+00  0.000E+00  1.05417E+03  6.732E-01  1.519E+01  7.594E-02  1.224E+00
   1    8    7     5     3    9.9265E+00  1.9221E-01   9.7343E+00  0.000E+00  0.000E+00  0.000E+00  1.04992E+03  6.676E-01  1.497E+01  5.241E-02  1.223E+00
   1    8    6     5     4    9.7343E+00  1.3577E-01   9.5985E+00  0.000E+00  0.000E+00  0.000E+00  1.04691E+03  6.637E-01  1.482E+01  3.706E-02  1.221E+00
   1    9    6     6     1    1.3725E+01  2.3107E-01   1.3494E+01  0.000E+00  0.000E+00  0.000E+00  1.04358E+03  8.512E-01  1.200E+01  6.000E-02  1.284E+00
   1   10    7     6     2    1.3494E+01  2.3056E-01   1.3264E+01  0.000E+00  0.000E+00  0.000E+00  1.03902E+03  8.426E-01  1.200E+01  6.000E-02  1.281E+00
   1   11    7     6     3    1.3264E+01  2.3004E-01   1.3034E+01  0.000E+00  0.000E+00  0.000E+00  1.03447E+03  8.339E-01  1.200E+01  6.000E-02  1.278E+00
   1   12    7     6     4    1.3034E+01  2.2951E-01   1.2804E+01  0.000E+00  0.000E+00  0.000E+00  1.02992E+03  8.252E-01  1.200E+01  6.000E-02  1.275E+00
   1   13    7     6     5    1.2804E+01  8.3427E-04   1.2803E+01  0.000E+00  0.000E+00  0.000E+00  1.02673E+03  8.208E-01  1.200E+01  2.400E-02  1.159E-02
   1   14    9     7     1    1.5000E+02  1.3795E+00   1.4862E+02  0.000E+00  0.000E+00  0.000E+00  1.03987E+03  2.288E+00  5.529E+01  5.593E-01  8.222E-01
   1   13    8     7     2    1.4862E+02  1.9612E+00   1.4666E+02  0.000E+00  0.000E+00  0.000E+00  1.03478E+03  2.279E+00  5.525E+01  6.147E-01  1.063E+00
   1   13    7     7     3    1.4666E+02  1.6713E+00   1.4499E+02  0.000E+00  0.000E+00  0.000E+00  1.02969E+03  2.269E+00  5.521E+01  5.584E-01  9.977E-01
   1   13    6     8     1    1.5779E+02  1.0482E+00   1.5674E+02  0.000E+00  0.000E+00  0.000E+00  1.02474E+03  2.868E+00  4.158E+01  4.238E-01  8.245E-01
   1   13    5     8     2    1.5674E+02  2.9939E-01   1.5644E+02  0.000E+00  0.000E+00  0.000E+00  1.01849E+03  2.863E+00  4.152E+01  4.231E-01  2.359E-01
   1   13    4     8     3    1.5644E+02 -2.0144E+00   1.5846E+02  0.000E+00  0.000E+00  0.000E+00  1.01224E+03  2.869E+00  4.160E+01  4.239E+00 -1.584E-01
   1   13    3     8     4    1.5846E+02 -3.4508E+00   1.6191E+02  0.000E+00  0.000E+00  0.000E+00  1.00601E+03  2.888E+00  4.187E+01  4.267E+00 -2.696E-01
   1   13    2     8     5    1.6191E+02 -2.5648E+00   1.6447E+02  0.000E+00  0.000E+00  0.000E+00  9.99783E+02  2.908E+00  4.216E+01  4.297E+00 -1.990E-01
   1   13    1     8     6    1.6447E+02 -2.0155E+00   1.6649E+02  0.000E+00  0.000E+00  0.000E+00  9.94798E+02  2.923E+00  4.239E+01  2.592E+00 -2.592E-01
   1    8    6     9     1    2.2260E+01  0.0000E+00   2.2260E+01  0.000E+00  0.000E+00  0.000E+00  1.08240E+03  3.653E+00  4.000E+00  0.000E+00  2.218E+00
   1    8    5     9     2    2.2260E+01  0.0000E+00   2.2260E+01  0.000E+00  0.000E+00  0.000E+00  1.08190E+03  3.653E+00  4.000E+00  0.000E+00  2.218E+00





UNSATURATED ZONE PACKAGE VOLUMETRIC BUDGET FOR  TIME STEP    30 STRESS PERIOD   31
  ------------------------------------------------------------------------------



     CUMULATIVE VOLUMES      L**3       RATES FOR THIS TIME STEP      L**3/T
     ------------------                 ------------------------

           IN:                                      IN:
           ---                                      ---
        INFILTRATION =  1223976142.1619          INFILTRATION =          26.6683

          OUT:                                     OUT:
          ----                                     ----
              UZF ET =  1129120944.7599                UZF ET =          26.5765
        UZF RECHARGE =      717884.2805          UZF RECHARGE =       0.0000E+00

            IN - OUT =    94137313.1214              IN - OUT =       9.1812E-02

          STORAGE:                                 STORAGE:
          --------                                 --------
      STORAGE CHANGE =    94137297.9295        STORAGE CHANGE =       9.1812E-02

 PERCENT DISCREPANCY IS DIFFERENCE BETWEEN IN-OUT MINUS CHANGE IN STORAGE
 DIVIDED BY THE AVERAGE OF IN AND OUT TIMES 100

 PERCENT DISCREPANCY =           0.00     PERCENT DISCREPANCY =           0.00






1
  VOLUMETRIC BUDGET FOR AGRICULTURAL FIELDS AT  END OF TIME STEP   30, STRESS PERIOD  31
  ------------------------------------------------------------------------------

     CUMULATIVE VOLUMES      L**3       RATES FOR THIS TIME STEP      L**3/T
     ------------------                 ------------------------

           IN:                                      IN:
           ---                                      ---
               AG WELLS  =   419684928.0000                 AG WELLS  =           0.0000
      DIVERSION SEGMENTS =   456457216.0000        DIVERSION SEGMENTS =          22.2603
           GW IRRIGATION =           0.0000             GW IRRIGATION =           0.0000
           SW IRRIGATION =           0.0000             SW IRRIGATION =           0.0000
        SYSTEM LOSSES GW =           0.0000          SYSTEM LOSSES GW =           0.0000
        SYSTEM LOSSES SW =           0.0000          SYSTEM LOSSES SW =           0.0000

                TOTAL IN =   876142144.0000                  TOTAL IN =          22.2603

          OUT:                                     OUT:
          ----                                     ----
               AG WELLS  =           0.0000                 AG WELLS  =           0.0000
      DIVERSION SEGMENTS =           0.0000        DIVERSION SEGMENTS =           0.0000
           GW IRRIGATION =   419684928.0000             GW IRRIGATION =           0.0000
           SW IRRIGATION =   456466464.0000             SW IRRIGATION =          22.2608
        SYSTEM LOSSES GW =           0.0000          SYSTEM LOSSES GW =           0.0000
        SYSTEM LOSSES SW =           0.0000          SYSTEM LOSSES SW =           0.0000

               TOTAL OUT =   876151424.0000                 TOTAL OUT =          22.2608

                IN - OUT =       -9280.0000                  IN - OUT =      -4.4441E-04

     PERCENT DISCREPANCY =          -0.00         PERCENT DISCREPANCY =          -0.00



1
  VOLUMETRIC BUDGET FOR ENTIRE MODEL AT END OF TIME STEP   30, STRESS PERIOD  31
  ------------------------------------------------------------------------------

     CUMULATIVE VOLUMES      L**3       RATES FOR THIS TIME STEP      L**3/T
     ------------------                 ------------------------

           IN:                                      IN:
           ---                                      ---
             STORAGE     =   639258112.0000               STORAGE     =           1.4527
       CONSTANT HEAD     =           0.0000         CONSTANT HEAD     =           0.0000
     HEAD DEP BOUNDS     =    22761872.0000       HEAD DEP BOUNDS     =           0.2887
      STREAM LEAKAGE     =   930123136.0000        STREAM LEAKAGE     =          12.4200
        UZF RECHARGE     =      717884.3750          UZF RECHARGE     =           0.0000
               GW ET     =           0.0000                 GW ET     =           0.0000
     SURFACE LEAKAGE     =           0.0000       SURFACE LEAKAGE     =           0.0000
           AG WELLS      =           0.0000             AG WELLS      =           0.0000

                TOTAL IN =  1592860928.0000                  TOTAL IN =          14.1615

          OUT:                                     OUT:
          ----                                     ----
             STORAGE     =   346899040.0000               STORAGE     =           3.8265
       CONSTANT HEAD     =           0.0000         CONSTANT HEAD     =           0.0000
     HEAD DEP BOUNDS     =    22747154.0000       HEAD DEP BOUNDS     =           0.2879
      STREAM LEAKAGE     =   803492800.0000        STREAM LEAKAGE     =          10.0456
        UZF RECHARGE     =           0.0000          UZF RECHARGE     =           0.0000
               GW ET     =           0.0000                 GW ET     =           0.0000
     SURFACE LEAKAGE     =           0.0000       SURFACE LEAKAGE     =           0.0000
           AG WELLS      =   419684928.0000             AG WELLS      =           0.0000

               TOTAL OUT =  1592823808.0000                 TOTAL OUT =          14.1599

                IN - OUT =       37120.0000                  IN - OUT =       1.5135E-03

     PERCENT DISCREPANCY =           0.00         PERCENT DISCREPANCY =           0.01






         TIME SUMMARY AT END OF TIME STEP   30 IN STRESS PERIOD   31
                    SECONDS     MINUTES      HOURS       DAYS        YEARS
                    -----------------------------------------------------------
   TIME STEP LENGTH  87667.      1461.1      24.352      1.0147     2.77799E-03
 STRESS PERIOD TIME 2.63000E+06  43833.      730.56      30.440     8.33397E-02
         TOTAL TIME 7.89864E+07 1.31644E+06  21941.      914.20      2.5029    
1
1
                            STRESS PERIOD NO.   32, LENGTH =   2630000.    
                            -----------------------------------------------

                              NUMBER OF TIME STEPS =    30

                               MULTIPLIER FOR DELT =     1.000

                            INITIAL TIME STEP SIZE =   87666.66    

 REUSING NON-PARAMETER GHB CELLS FROM LAST STRESS PERIOD

      2 GHB CELLS

 REUSING STREAM SEGMENT DATA FROM LAST STRESS PERIOD



            AREAL INFILTRATION RATE
 READING ON UNIT   19 WITH FORMAT: (10F4.0)            

            1           2           3           4           5           6           7           8           9          10
 ........................................................................................................................
   1   1.2000E-09   0.000       0.000       0.000       0.000       0.000       0.000       0.000       0.000       0.000    
   2   2.1000E-09  2.0000E-09  8.0000E-10  8.5000E-09   0.000       0.000       0.000       0.000       0.000       0.000    
   3   5.0000E-10  1.1000E-09  8.8000E-09  5.5000E-09   0.000       0.000       0.000       0.000       0.000       0.000    
   4   8.5000E-09  1.1000E-09  1.1000E-09  1.1000E-09  2.0000E-09   0.000       0.000       0.000       0.000       0.000    
   5   8.5000E-09  1.1000E-09  1.1000E-09  1.1000E-09  1.1000E-09   0.000       0.000       0.000       0.000       0.000    
   6   8.5000E-09  5.2000E-09  2.1000E-09  1.1000E-09  1.5000E-09   0.000       0.000       0.000       0.000       0.000    
   7   8.5000E-09  5.2000E-09  2.1000E-09  1.2000E-09  2.0000E-09   0.000       0.000       0.000       0.000       0.000    
   8   5.0000E-10  5.2000E-09  2.1000E-09  1.2000E-09  5.0000E-09   0.000       0.000       0.000       0.000       0.000    
   9   5.0000E-10  5.2000E-09  2.1000E-09  1.2000E-09  5.0000E-09   0.000       0.000       0.000       0.000       0.000    
  10   5.0000E-10  5.2000E-09  2.1000E-09  1.2000E-09  5.8000E-09   0.000       0.000       0.000       0.000       0.000    
  11   1.0000E-10  1.1000E-09  1.1000E-09  1.2000E-09  5.0000E-09   0.000       0.000       0.000       0.000       0.000    
  12   1.1000E-09  1.1000E-09  1.1000E-09  1.1000E-09  2.0000E-09   0.000       0.000       0.000       0.000       0.000    
  13   1.1000E-09  2.2000E-09  2.2000E-09  2.1000E-09  1.0000E-09   0.000       0.000       0.000       0.000       0.000    
  14   2.0000E-10  5.5000E-09  5.5000E-09  5.2000E-09  1.0000E-09   0.000       0.000       0.000       0.000       0.000    
  15    0.000      8.8000E-09  8.8000E-09   0.000       0.000       0.000       0.000       0.000       0.000       0.000    

                  ET RATE =  4.000000E-07

 USING ET EXTINCTION DEPTH FROM PREVIOUS STRESS PERIOD. CURRENT PERIOD IS:      32

 USING EXTINCTION WATER CONTENT FROM PREVIOUS STRESS PERIOD. CURRENT PERIOD IS:      32

 USING AIR ENTRY PRESSURE FROM PREVIOUS STRESS PERIOD. CURRENT PERIOD IS:      32

 USING ROOT PRESSURE HEAD FROM PREVIOUS STRESS PERIOD. CURRENT PERIOD IS:      32

 USING ROOT ACTIVITY FROM PREVIOUS STRESS PERIOD. CURRENT PERIOD IS:      32

 PROCESSING AG STRESS PERIOD DATA

 READING AG STRESS PERIOD DATA

 READING IRRIGATION SEGMENT

 READING IRRIGATION WELL

 READING SUPPLEMENTAL WELL

 END PROCESSING AG STRESS PERIOD DATA OPTIONS
 
 SOLVING FOR HEAD 
                                                   Max.-Head-Change                         Max.-Flux-Residual
  Residual-Control   Outer-Iter.   Inner-Iter.     Column Row Layer    Maximum-Head-Change  Column Row Layer    Maximum-Flux-Residual          L2-NORM 
          0                 1           2             4    7     1      -0.8717478453E-01       5    8    1        -0.4594570715E+01      0.1124796722E+02
          0                 2           2             4   13     1      -0.1036253089E-01       4   13    1        -0.6090427458E+00      0.1029920622E+01
          0                 3           2             4    7     1      -0.4487999040E-02       5    8    1        -0.2348435689E+00      0.5798186623E+00
          0                 4           2             4    7     1      -0.1811350572E-02       4    7    1        -0.9462374887E-01      0.2317527902E+00
          0                 5           2             4    7     1      -0.9488032270E-03       5    6    1        -0.4956763666E-01      0.1214126659E+00
          0                 6           2             4    7     1      -0.6007409691E-03       4    6    1        -0.3139692331E-01      0.7687452480E-01
          0                 7           2             4    7     1      -0.5195999869E-03       4    7    1        -0.2714331836E-01      0.6648627055E-01
          0                 8           2             4    7     1      -0.4310941399E-03       4    6    1        -0.2251985450E-01      0.5516182070E-01
          0                 9           2             4    7     1      -0.3594357066E-03       4    7    1        -0.1877650061E-01      0.4599252545E-01
          0                10           2             4    7     1      -0.2995198286E-03       4    7    1        -0.1564656485E-01      0.3832583838E-01
                                                   Max.-Head-Change                         Max.-Flux-Residual
  Residual-Control   Outer-Iter.   Inner-Iter.     Column Row Layer    Maximum-Head-Change  Column Row Layer    Maximum-Flux-Residual          L2-NORM 
          0                11           2             4    7     1      -0.2495932456E-03       4    7    1        -0.1303845856E-01      0.3193735198E-01
          0                12           2             4    7     1      -0.2079965558E-03       4    7    1        -0.1086549616E-01      0.2661473937E-01
          0                13           2             4    7     1      -0.1733348100E-03       4    7    1        -0.9054807150E-02      0.2217950559E-01
          0                14           2             4    7     1      -0.1444421986E-03       4    7    1        -0.7545490978E-02      0.1848247643E-01
          0                15           2             4    7     1      -0.1203673255E-03       4    7    1        -0.6287847830E-02      0.1540191353E-01
          0                16           1             4    7     1      -0.1003107876E-03       4    7    1        -0.5240117756E-02      0.1283552701E-01
          0                17           1             4    7     1      -0.8358576883E-04       4    7    1        -0.4366422442E-02      0.1069543401E-01

    ------------------------------------------------
       NWT REQUIRED           17 OUTER ITERATIONS 
       AND A TOTAL OF         32 INNER ITERATIONS.
    ------------------------------------------------

 NO OUTPUT CONTROL FOR STRESS PERIOD   32   TIME STEP    1
 
 SOLVING FOR HEAD 
                                                   Max.-Head-Change                         Max.-Flux-Residual
  Residual-Control   Outer-Iter.   Inner-Iter.     Column Row Layer    Maximum-Head-Change  Column Row Layer    Maximum-Flux-Residual          L2-NORM 
          0                 1           2             4    7     1      -0.1103556712E+00       4    7    1        -0.5767594218E+01      0.1401708261E+02
          0                 2           2             4    7     1       0.1057473480E-01       4   13    1        -0.5951272847E+00      0.1713846488E+01
          0                 3           2             4    7     1      -0.8495540196E-03       4    7    1        -0.4691852529E-01      0.1343105348E+00
          0                 4           1             4    7     1      -0.7312041382E-04       5    8    1        -0.4063557577E-02      0.1034565645E-01

    ------------------------------------------------
       NWT REQUIRED            4 OUTER ITERATIONS 
       AND A TOTAL OF          7 INNER ITERATIONS.
    ------------------------------------------------

 NO OUTPUT CONTROL FOR STRESS PERIOD   32   TIME STEP    2
 
 SOLVING FOR HEAD 
                                                   Max.-Head-Change                         Max.-Flux-Residual
  Residual-Control   Outer-Iter.   Inner-Iter.     Column Row Layer    Maximum-Head-Change  Column Row Layer    Maximum-Flux-Residual          L2-NORM 
          0                 1           2             4    7     1      -0.1096619823E+00       4    7    1        -0.5733780993E+01      0.1375353956E+02
          0                 2           2             4    7     1       0.1045601488E-01       4   13    1        -0.5965631210E+00      0.1692891060E+01
          0                 3           2             4    7     1      -0.8416603361E-03       4    7    1        -0.4646233346E-01      0.1327184480E+00
          0                 4           1             4    7     1      -0.7361460100E-04       5    8    1        -0.4116385913E-02      0.1043623456E-01

    ------------------------------------------------
       NWT REQUIRED            4 OUTER ITERATIONS 
       AND A TOTAL OF          7 INNER ITERATIONS.
    ------------------------------------------------

 NO OUTPUT CONTROL FOR STRESS PERIOD   32   TIME STEP    3
 
 SOLVING FOR HEAD 
                                                   Max.-Head-Change                         Max.-Flux-Residual
  Residual-Control   Outer-Iter.   Inner-Iter.     Column Row Layer    Maximum-Head-Change  Column Row Layer    Maximum-Flux-Residual          L2-NORM 
          0                 1           2             4    7     1      -0.1090422703E+00       4    7    1        -0.5700661808E+01      0.1350472594E+02
          0                 2           2             4    7     1       0.1044683095E-01       4   13    1        -0.5978699528E+00      0.1674762402E+01
          0                 3           2             4    7     1      -0.8406991571E-03       4    7    1        -0.4643946464E-01      0.1312775468E+00
          0                 4           1             4    8     1      -0.7347763627E-04       5    8    1        -0.4144589908E-02      0.1046682100E-01

    ------------------------------------------------
       NWT REQUIRED            4 OUTER ITERATIONS 
       AND A TOTAL OF          7 INNER ITERATIONS.
    ------------------------------------------------

 NO OUTPUT CONTROL FOR STRESS PERIOD   32   TIME STEP    4
 
 SOLVING FOR HEAD 
                                                   Max.-Head-Change                         Max.-Flux-Residual
  Residual-Control   Outer-Iter.   Inner-Iter.     Column Row Layer    Maximum-Head-Change  Column Row Layer    Maximum-Flux-Residual          L2-NORM 
          0                 1           2             4    7     1      -0.1083322334E+00       4    7    1        -0.5665759959E+01      0.1326882410E+02
          0                 2           2             4    7     1       0.1037860585E-01       4   13    1        -0.5990579364E+00      0.1657932016E+01
          0                 3           2             4    7     1      -0.8356905295E-03       4    7    1        -0.4617672252E-01      0.1299249717E+00
          0                 4           1             5    8     1      -0.7370410956E-04       5    8    1        -0.4171372859E-02      0.1049674735E-01

    ------------------------------------------------
       NWT REQUIRED            4 OUTER ITERATIONS 
       AND A TOTAL OF          7 INNER ITERATIONS.
    ------------------------------------------------

 NO OUTPUT CONTROL FOR STRESS PERIOD   32   TIME STEP    5
 
 SOLVING FOR HEAD 
                                                   Max.-Head-Change                         Max.-Flux-Residual
  Residual-Control   Outer-Iter.   Inner-Iter.     Column Row Layer    Maximum-Head-Change  Column Row Layer    Maximum-Flux-Residual          L2-NORM 
          0                 1           2             4    7     1      -0.1075866237E+00       4    7    1        -0.5628838331E+01      0.1304463047E+02
          0                 2           2             4    7     1       0.1030649680E-01       4   13    1        -0.6001415347E+00      0.1641439740E+01
          0                 3           2             4    7     1      -0.8304347141E-03       4    7    1        -0.4590076677E-01      0.1285980275E+00
          0                 4           1             5    8     1      -0.7411953928E-04       5    8    1        -0.4195842031E-02      0.1052728332E-01

    ------------------------------------------------
       NWT REQUIRED            4 OUTER ITERATIONS 
       AND A TOTAL OF          7 INNER ITERATIONS.
    ------------------------------------------------

 NO OUTPUT CONTROL FOR STRESS PERIOD   32   TIME STEP    6
 
 SOLVING FOR HEAD 
                                                   Max.-Head-Change                         Max.-Flux-Residual
  Residual-Control   Outer-Iter.   Inner-Iter.     Column Row Layer    Maximum-Head-Change  Column Row Layer    Maximum-Flux-Residual          L2-NORM 
          0                 1           2             4    7     1      -0.1068093103E+00       4    7    1        -0.5590087091E+01      0.1283073765E+02
          0                 2           2             4    7     1       0.1023129592E-01       4   13    1        -0.6011287176E+00      0.1625808418E+01
          0                 3           2             4    7     1      -0.8249856418E-03       4    7    1        -0.4561292798E-01      0.1273308107E+00
          0                 4           1             5    8     1      -0.7448987284E-04       5    8    1        -0.4217677020E-02      0.1055348966E-01

    ------------------------------------------------
       NWT REQUIRED            4 OUTER ITERATIONS 
       AND A TOTAL OF          7 INNER ITERATIONS.
    ------------------------------------------------

 NO OUTPUT CONTROL FOR STRESS PERIOD   32   TIME STEP    7
 
 SOLVING FOR HEAD 
                                                   Max.-Head-Change                         Max.-Flux-Residual
  Residual-Control   Outer-Iter.   Inner-Iter.     Column Row Layer    Maximum-Head-Change  Column Row Layer    Maximum-Flux-Residual          L2-NORM 
          0                 1           2             4    7     1      -0.1060037970E+00       4    7    1        -0.5549699386E+01      0.1262642725E+02
          0                 2           2             4   13     1      -0.1024302071E-01       4   13    1        -0.6020296966E+00      0.1610972318E+01
          0                 3           2             4    7     1      -0.8193233017E-03       4    7    1        -0.4531217368E-01      0.1261179635E+00
          0                 4           1             5    8     1      -0.7485302780E-04       5    8    1        -0.4239029017E-02      0.1058189074E-01

    ------------------------------------------------
       NWT REQUIRED            4 OUTER ITERATIONS 
       AND A TOTAL OF          7 INNER ITERATIONS.
    ------------------------------------------------

 NO OUTPUT CONTROL FOR STRESS PERIOD   32   TIME STEP    8
 
 SOLVING FOR HEAD 
                                                   Max.-Head-Change                         Max.-Flux-Residual
  Residual-Control   Outer-Iter.   Inner-Iter.     Column Row Layer    Maximum-Head-Change  Column Row Layer    Maximum-Flux-Residual          L2-NORM 
          0                 1           2             4    7     1      -0.1051731068E+00       4    7    1        -0.5507842676E+01      0.1243104038E+02
          0                 2           2             4   13     1      -0.1025699854E-01       4   13    1        -0.6028505687E+00      0.1581772332E+01
          0                 3           2             4    7     1      -0.8257916685E-03       4    7    1        -0.4567963405E-01      0.1263193829E+00
          0                 4           1             5    8     1      -0.4699218705E-04       5    8    1        -0.2664379595E-02      0.6940292310E-02

    ------------------------------------------------
       NWT REQUIRED            4 OUTER ITERATIONS 
       AND A TOTAL OF          7 INNER ITERATIONS.
    ------------------------------------------------

 NO OUTPUT CONTROL FOR STRESS PERIOD   32   TIME STEP    9
 
 SOLVING FOR HEAD 
                                                   Max.-Head-Change                         Max.-Flux-Residual
  Residual-Control   Outer-Iter.   Inner-Iter.     Column Row Layer    Maximum-Head-Change  Column Row Layer    Maximum-Flux-Residual          L2-NORM 
          0                 1           2             4    7     1      -0.1043178453E+00       4    7    1        -0.5464561585E+01      0.1224347053E+02
          0                 2           2             4   13     1      -0.1026979343E-01       4   13    1        -0.6036016488E+00      0.1557536178E+01
          0                 3           2             4    7     1      -0.8693266594E-03       4    7    1        -0.4809114614E-01      0.1307747046E+00
          0                 4           1             5    6     1      -0.7061332503E-04       5    6    1        -0.3997525828E-02      0.9990648602E-02

    ------------------------------------------------
       NWT REQUIRED            4 OUTER ITERATIONS 
       AND A TOTAL OF          7 INNER ITERATIONS.
    ------------------------------------------------

 NO OUTPUT CONTROL FOR STRESS PERIOD   32   TIME STEP   10
 
 SOLVING FOR HEAD 
                                                   Max.-Head-Change                         Max.-Flux-Residual
  Residual-Control   Outer-Iter.   Inner-Iter.     Column Row Layer    Maximum-Head-Change  Column Row Layer    Maximum-Flux-Residual          L2-NORM 
          0                 1           2             4    7     1      -0.1034396972E+00       4    7    1        -0.5419957260E+01      0.1206234544E+02
          0                 2           2             4   13     1      -0.1028147667E-01       4   13    1        -0.6042871863E+00      0.1541291202E+01
          0                 3           2             4    7     1      -0.8762145834E-03       4    7    1        -0.4847991645E-01      0.1310749070E+00
          0                 4           1             5    6     1      -0.7787083934E-04       5    8    1        -0.4415279066E-02      0.1094381432E-01

    ------------------------------------------------
       NWT REQUIRED            4 OUTER ITERATIONS 
       AND A TOTAL OF          7 INNER ITERATIONS.
    ------------------------------------------------

 NO OUTPUT CONTROL FOR STRESS PERIOD   32   TIME STEP   11
 
 SOLVING FOR HEAD 
                                                   Max.-Head-Change                         Max.-Flux-Residual
  Residual-Control   Outer-Iter.   Inner-Iter.     Column Row Layer    Maximum-Head-Change  Column Row Layer    Maximum-Flux-Residual          L2-NORM 
          0                 1           2             4    7     1      -0.1025438441E+00       4    7    1        -0.5374302367E+01      0.1188782398E+02
          0                 2           2             4   13     1      -0.1029220630E-01       4   13    1        -0.6049165054E+00      0.1529082286E+01
          0                 3           2             4    7     1      -0.8705453086E-03       4    7    1        -0.4817491440E-01      0.1301013441E+00
          0                 4           1             5    8     1      -0.7852350576E-04       5    8    1        -0.4453731096E-02      0.1102226714E-01

    ------------------------------------------------
       NWT REQUIRED            4 OUTER ITERATIONS 
       AND A TOTAL OF          7 INNER ITERATIONS.
    ------------------------------------------------

 NO OUTPUT CONTROL FOR STRESS PERIOD   32   TIME STEP   12
 
 SOLVING FOR HEAD 
                                                   Max.-Head-Change                         Max.-Flux-Residual
  Residual-Control   Outer-Iter.   Inner-Iter.     Column Row Layer    Maximum-Head-Change  Column Row Layer    Maximum-Flux-Residual          L2-NORM 
          0                 1           2             4    7     1      -0.1016332875E+00       4    7    1        -0.5327760623E+01      0.1172030800E+02
          0                 2           2             4   13     1      -0.1030201115E-01       4   13    1        -0.6054913183E+00      0.1517446890E+01
          0                 3           2             4    7     1      -0.8647846168E-03       4    7    1        -0.4786404055E-01      0.1291243924E+00
          0                 4           1             5    8     1      -0.7914842683E-04       5    8    1        -0.4489692682E-02      0.1109355606E-01

    ------------------------------------------------
       NWT REQUIRED            4 OUTER ITERATIONS 
       AND A TOTAL OF          7 INNER ITERATIONS.
    ------------------------------------------------

 NO OUTPUT CONTROL FOR STRESS PERIOD   32   TIME STEP   13
 
 SOLVING FOR HEAD 
                                                   Max.-Head-Change                         Max.-Flux-Residual
  Residual-Control   Outer-Iter.   Inner-Iter.     Column Row Layer    Maximum-Head-Change  Column Row Layer    Maximum-Flux-Residual          L2-NORM 
          0                 1           2             4    7     1      -0.1007100032E+00       4    7    1        -0.5280442670E+01      0.1155932142E+02
          0                 2           2             4   13     1      -0.1031100810E-01       4   13    1        -0.6060185504E+00      0.1506336125E+01
          0                 3           2             4    7     1      -0.8589285960E-03       4    7    1        -0.4754712510E-01      0.1281845335E+00
          0                 4           1             5    8     1      -0.7974960425E-04       5    8    1        -0.4524257633E-02      0.1116297334E-01

    ------------------------------------------------
       NWT REQUIRED            4 OUTER ITERATIONS 
       AND A TOTAL OF          7 INNER ITERATIONS.
    ------------------------------------------------

 NO OUTPUT CONTROL FOR STRESS PERIOD   32   TIME STEP   14
 
 SOLVING FOR HEAD 
                                                   Max.-Head-Change                         Max.-Flux-Residual
  Residual-Control   Outer-Iter.   Inner-Iter.     Column Row Layer    Maximum-Head-Change  Column Row Layer    Maximum-Flux-Residual          L2-NORM 
          0                 1           2             4    7     1      -0.9977608066E-01       4    7    1        -0.5232464823E+01      0.1140446164E+02
          0                 2           2             4   13     1      -0.1031931362E-01       4   13    1        -0.6065050669E+00      0.1495717474E+01
          0                 3           2             4    7     1      -0.8530021453E-03       4    7    1        -0.4722559239E-01      0.1272809353E+00
          0                 4           1             5    8     1      -0.8032818247E-04       5    8    1        -0.4557495085E-02      0.1123049974E-01

    ------------------------------------------------
       NWT REQUIRED            4 OUTER ITERATIONS 
       AND A TOTAL OF          7 INNER ITERATIONS.
    ------------------------------------------------

 NO OUTPUT CONTROL FOR STRESS PERIOD   32   TIME STEP   15
 
 SOLVING FOR HEAD 
                                                   Max.-Head-Change                         Max.-Flux-Residual
  Residual-Control   Outer-Iter.   Inner-Iter.     Column Row Layer    Maximum-Head-Change  Column Row Layer    Maximum-Flux-Residual          L2-NORM 
          0                 1           2             4    7     1      -0.9883363268E-01       4    7    1        -0.5183944669E+01      0.1125536540E+02
          0                 2           2             4   13     1      -0.1032681216E-01       4   13    1        -0.6069440500E+00      0.1485555724E+01
          0                 3           2             4    7     1      -0.8470106134E-03       4    7    1        -0.4689978851E-01      0.1264072015E+00
          0                 4           1             5    8     1      -0.8089434931E-04       5    8    1        -0.4589985513E-02      0.1129805159E-01

    ------------------------------------------------
       NWT REQUIRED            4 OUTER ITERATIONS 
       AND A TOTAL OF          7 INNER ITERATIONS.
    ------------------------------------------------

 NO OUTPUT CONTROL FOR STRESS PERIOD   32   TIME STEP   16
 
 SOLVING FOR HEAD 
                                                   Max.-Head-Change                         Max.-Flux-Residual
  Residual-Control   Outer-Iter.   Inner-Iter.     Column Row Layer    Maximum-Head-Change  Column Row Layer    Maximum-Flux-Residual          L2-NORM 
          0                 1           2             4    7     1      -0.9788415472E-01       4    7    1        -0.5134965959E+01      0.1111168374E+02
          0                 2           2             4   13     1      -0.1033378557E-01       4   13    1        -0.6073521457E+00      0.1475827772E+01
          0                 3           2             4    7     1      -0.8409904365E-03       4    7    1        -0.4657176346E-01      0.1255693538E+00
          0                 4           1             5    8     1      -0.8144841138E-04       5    8    1        -0.4621750033E-02      0.1136524029E-01

    ------------------------------------------------
       NWT REQUIRED            4 OUTER ITERATIONS 
       AND A TOTAL OF          7 INNER ITERATIONS.
    ------------------------------------------------

 NO OUTPUT CONTROL FOR STRESS PERIOD   32   TIME STEP   17
 
 SOLVING FOR HEAD 
                                                   Max.-Head-Change                         Max.-Flux-Residual
  Residual-Control   Outer-Iter.   Inner-Iter.     Column Row Layer    Maximum-Head-Change  Column Row Layer    Maximum-Flux-Residual          L2-NORM 
          0                 1           2             4    7     1      -0.9692961487E-01       4    7    1        -0.5085638390E+01      0.1097310642E+02
          0                 2           2             4   13     1      -0.1034018091E-01       4   13    1        -0.6077262469E+00      0.1466501562E+01
          0                 3           2             4    7     1      -0.8349361521E-03       4    7    1        -0.4624126452E-01      0.1247602892E+00
          0                 4           1             5    8     1      -0.8196711968E-04       5    8    1        -0.4651476102E-02      0.1142868546E-01

    ------------------------------------------------
       NWT REQUIRED            4 OUTER ITERATIONS 
       AND A TOTAL OF          7 INNER ITERATIONS.
    ------------------------------------------------

 NO OUTPUT CONTROL FOR STRESS PERIOD   32   TIME STEP   18
 
 SOLVING FOR HEAD 
                                                   Max.-Head-Change                         Max.-Flux-Residual
  Residual-Control   Outer-Iter.   Inner-Iter.     Column Row Layer    Maximum-Head-Change  Column Row Layer    Maximum-Flux-Residual          L2-NORM 
          0                 1           2             4    7     1      -0.9597128491E-01       4    7    1        -0.5036033770E+01      0.1083934179E+02
          0                 2           2             4   13     1      -0.1034608026E-01       4   13    1        -0.6080711963E+00      0.1457553748E+01
          0                 3           2             4    7     1      -0.8288573932E-03       4    7    1        -0.4590886099E-01      0.1239803415E+00
          0                 4           1             5    8     1      -0.8247678189E-04       5    8    1        -0.4680655608E-02      0.1149217864E-01

    ------------------------------------------------
       NWT REQUIRED            4 OUTER ITERATIONS 
       AND A TOTAL OF          7 INNER ITERATIONS.
    ------------------------------------------------

 NO OUTPUT CONTROL FOR STRESS PERIOD   32   TIME STEP   19
 
 SOLVING FOR HEAD 
                                                   Max.-Head-Change                         Max.-Flux-Residual
  Residual-Control   Outer-Iter.   Inner-Iter.     Column Row Layer    Maximum-Head-Change  Column Row Layer    Maximum-Flux-Residual          L2-NORM 
          0                 1           2             4    7     1      -0.9501072136E-01       4    7    1        -0.4986239052E+01      0.1071011643E+02
          0                 2           2             4   13     1      -0.1035152620E-01       4   13    1        -0.6083894726E+00      0.1448961870E+01
          0                 3           2             4    7     1      -0.8227626506E-03       4    7    1        -0.4557506122E-01      0.1232268406E+00
          0                 4           1             5    8     1      -0.8297020461E-04       5    8    1        -0.4708884302E-02      0.1155404045E-01

    ------------------------------------------------
       NWT REQUIRED            4 OUTER ITERATIONS 
       AND A TOTAL OF          7 INNER ITERATIONS.
    ------------------------------------------------

 NO OUTPUT CONTROL FOR STRESS PERIOD   32   TIME STEP   20
 
 SOLVING FOR HEAD 
                                                   Max.-Head-Change                         Max.-Flux-Residual
  Residual-Control   Outer-Iter.   Inner-Iter.     Column Row Layer    Maximum-Head-Change  Column Row Layer    Maximum-Flux-Residual          L2-NORM 
          0                 1           2             4    7     1      -0.9404913601E-01       4    7    1        -0.4936322678E+01      0.1058518644E+02
          0                 2           2             4   13     1      -0.1035652455E-01       4   13    1        -0.6086814759E+00      0.1440701918E+01
          0                 3           2             4    7     1      -0.8166605558E-03       4    7    1        -0.4524037760E-01      0.1224977228E+00
          0                 4           1             5    8     1      -0.8343992379E-04       5    8    1        -0.4735742288E-02      0.1161369926E-01

    ------------------------------------------------
       NWT REQUIRED            4 OUTER ITERATIONS 
       AND A TOTAL OF          7 INNER ITERATIONS.
    ------------------------------------------------

 NO OUTPUT CONTROL FOR STRESS PERIOD   32   TIME STEP   21
 
 SOLVING FOR HEAD 
                                                   Max.-Head-Change                         Max.-Flux-Residual
  Residual-Control   Outer-Iter.   Inner-Iter.     Column Row Layer    Maximum-Head-Change  Column Row Layer    Maximum-Flux-Residual          L2-NORM 
          0                 1           2             4    7     1      -0.9308799569E-01       4    7    1        -0.4886366581E+01      0.1046433114E+02
          0                 2           2             4   13     1      -0.1036118784E-01       4   13    1        -0.6089538274E+00      0.1432758752E+01
          0                 3           2             4    7     1      -0.8105626361E-03       4    7    1        -0.4490548369E-01      0.1217911912E+00
          0                 4           1             5    8     1      -0.8391203068E-04       5    8    1        -0.4762708600E-02      0.1167384262E-01

    ------------------------------------------------
       NWT REQUIRED            4 OUTER ITERATIONS 
       AND A TOTAL OF          7 INNER ITERATIONS.
    ------------------------------------------------

 NO OUTPUT CONTROL FOR STRESS PERIOD   32   TIME STEP   22
 
 SOLVING FOR HEAD 
                                                   Max.-Head-Change                         Max.-Flux-Residual
  Residual-Control   Outer-Iter.   Inner-Iter.     Column Row Layer    Maximum-Head-Change  Column Row Layer    Maximum-Flux-Residual          L2-NORM 
          0                 1           2             4    7     1      -0.9212816500E-01       4    7    1        -0.4836420406E+01      0.1034732607E+02
          0                 2           2             4   13     1      -0.1036544488E-01       4   13    1        -0.6092023146E+00      0.1425114393E+01
          0                 3           2             4    7     1      -0.8044728023E-03       4    7    1        -0.4457062671E-01      0.1211118552E+00
          0                 4           1             5    8     1      -0.8437059653E-04       5    8    1        -0.4788883713E-02      0.1173452752E-01

    ------------------------------------------------
       NWT REQUIRED            4 OUTER ITERATIONS 
       AND A TOTAL OF          7 INNER ITERATIONS.
    ------------------------------------------------

 NO OUTPUT CONTROL FOR STRESS PERIOD   32   TIME STEP   23
 
 SOLVING FOR HEAD 
                                                   Max.-Head-Change                         Max.-Flux-Residual
  Residual-Control   Outer-Iter.   Inner-Iter.     Column Row Layer    Maximum-Head-Change  Column Row Layer    Maximum-Flux-Residual          L2-NORM 
          0                 1           2             4    7     1      -0.9117065205E-01       4    7    1        -0.4786540753E+01      0.1023397561E+02
          0                 2           2             4   13     1      -0.1036941059E-01       4   13    1        -0.6094337674E+00      0.1417746972E+01
          0                 3           2             4    7     1      -0.7983971255E-03       4    7    1        -0.4423616946E-01      0.1204496495E+00
          0                 4           1             5    8     1      -0.8479967462E-04       5    8    1        -0.4813367209E-02      0.1179074900E-01

    ------------------------------------------------
       NWT REQUIRED            4 OUTER ITERATIONS 
       AND A TOTAL OF          7 INNER ITERATIONS.
    ------------------------------------------------

 NO OUTPUT CONTROL FOR STRESS PERIOD   32   TIME STEP   24
 
 SOLVING FOR HEAD 
                                                   Max.-Head-Change                         Max.-Flux-Residual
  Residual-Control   Outer-Iter.   Inner-Iter.     Column Row Layer    Maximum-Head-Change  Column Row Layer    Maximum-Flux-Residual          L2-NORM 
          0                 1           2             4    7     1      -0.9021669851E-01       4    7    1        -0.4736797384E+01      0.1012411453E+02
          0                 2           2             4   13     1      -0.1037308890E-01       4   13    1        -0.6096482915E+00      0.1410651323E+01
          0                 3           2             4    7     1      -0.7923462484E-03       4    7    1        -0.4390273366E-01      0.1198106982E+00
          0                 4           1             5    8     1      -0.8523355379E-04       5    8    1        -0.4838101505E-02      0.1184818635E-01

    ------------------------------------------------
       NWT REQUIRED            4 OUTER ITERATIONS 
       AND A TOTAL OF          7 INNER ITERATIONS.
    ------------------------------------------------

 NO OUTPUT CONTROL FOR STRESS PERIOD   32   TIME STEP   25
 
 SOLVING FOR HEAD 
                                                   Max.-Head-Change                         Max.-Flux-Residual
  Residual-Control   Outer-Iter.   Inner-Iter.     Column Row Layer    Maximum-Head-Change  Column Row Layer    Maximum-Flux-Residual          L2-NORM 
          0                 1           2             4    7     1      -0.8926685750E-01       4    7    1        -0.4687222565E+01      0.1001755317E+02
          0                 2           2             4   13     1      -0.1037648490E-01       4   13    1        -0.6098463168E+00      0.1403802809E+01
          0                 3           2             4    7     1      -0.7863208079E-03       4    7    1        -0.4357037818E-01      0.1191901066E+00
          0                 4           1             5    8     1      -0.8564780854E-04       5    8    1        -0.4861705841E-02      0.1190331817E-01

    ------------------------------------------------
       NWT REQUIRED            4 OUTER ITERATIONS 
       AND A TOTAL OF          7 INNER ITERATIONS.
    ------------------------------------------------

 NO OUTPUT CONTROL FOR STRESS PERIOD   32   TIME STEP   26
 
 SOLVING FOR HEAD 
                                                   Max.-Head-Change                         Max.-Flux-Residual
  Residual-Control   Outer-Iter.   Inner-Iter.     Column Row Layer    Maximum-Head-Change  Column Row Layer    Maximum-Flux-Residual          L2-NORM 
          0                 1           2             4    7     1      -0.8832207677E-01       4    7    1        -0.4637869767E+01      0.9914148081E+01
          0                 2           2             4   13     1      -0.1037963442E-01       4   13    1        -0.6100298763E+00      0.1397198182E+01
          0                 3           2             4    7     1      -0.7803572444E-03       4    7    1        -0.4324114145E-01      0.1185933525E+00
          0                 4           1             5    8     1      -0.8605024773E-04       5    8    1        -0.4884623586E-02      0.1195816963E-01

    ------------------------------------------------
       NWT REQUIRED            4 OUTER ITERATIONS 
       AND A TOTAL OF          7 INNER ITERATIONS.
    ------------------------------------------------

 NO OUTPUT CONTROL FOR STRESS PERIOD   32   TIME STEP   27
 
 SOLVING FOR HEAD 
                                                   Max.-Head-Change                         Max.-Flux-Residual
  Residual-Control   Outer-Iter.   Inner-Iter.     Column Row Layer    Maximum-Head-Change  Column Row Layer    Maximum-Flux-Residual          L2-NORM 
          0                 1           2             4    7     1      -0.8738302230E-01       4    7    1        -0.4588777011E+01      0.9813740129E+01
          0                 2           2             4   13     1      -0.1038258810E-01       4   13    1        -0.6102020508E+00      0.1390814211E+01
          0                 3           2             4    7     1      -0.7744020614E-03       4    7    1        -0.4291209471E-01      0.1180087342E+00
          0                 4           1             5    8     1      -0.8644385964E-04       5    8    1        -0.4907025405E-02      0.1201144744E-01

    ------------------------------------------------
       NWT REQUIRED            4 OUTER ITERATIONS 
       AND A TOTAL OF          7 INNER ITERATIONS.
    ------------------------------------------------

 NO OUTPUT CONTROL FOR STRESS PERIOD   32   TIME STEP   28
 
 SOLVING FOR HEAD 
                                                   Max.-Head-Change                         Max.-Flux-Residual
  Residual-Control   Outer-Iter.   Inner-Iter.     Column Row Layer    Maximum-Head-Change  Column Row Layer    Maximum-Flux-Residual          L2-NORM 
          0                 1           2             4    7     1      -0.8645035013E-01       4    7    1        -0.4539982155E+01      0.9716195578E+01
          0                 2           2             4   13     1      -0.1038530010E-01       4   13    1        -0.6103600459E+00      0.1384647390E+01
          0                 3           2             4    7     1      -0.7684984083E-03       4   13    1         0.4270851414E-01      0.1174435939E+00
          0                 4           1             5    8     1      -0.8683606214E-04       5    8    1        -0.4929332340E-02      0.1206571751E-01

    ------------------------------------------------
       NWT REQUIRED            4 OUTER ITERATIONS 
       AND A TOTAL OF          7 INNER ITERATIONS.
    ------------------------------------------------

 NO OUTPUT CONTROL FOR STRESS PERIOD   32   TIME STEP   29
 
 SOLVING FOR HEAD 
                                                   Max.-Head-Change                         Max.-Flux-Residual
  Residual-Control   Outer-Iter.   Inner-Iter.     Column Row Layer    Maximum-Head-Change  Column Row Layer    Maximum-Flux-Residual          L2-NORM 
          0                 1           2             4    7     1      -0.8552478406E-01       4    7    1        -0.4491526048E+01      0.9621389168E+01
          0                 2           2             4   13     1      -0.1038783877E-01       4   13    1        -0.6105079192E+00      0.1378685257E+01
          0                 3           2             4    7     1      -0.7626504743E-03       4   13    1         0.4271569260E-01      0.1168951044E+00
          0                 4           1             5    8     1      -0.8722738350E-04       5    8    1        -0.4951575441E-02      0.1211949316E-01

    ------------------------------------------------
       NWT REQUIRED            4 OUTER ITERATIONS 
       AND A TOTAL OF          7 INNER ITERATIONS.
    ------------------------------------------------

 NO OUTPUT CONTROL FOR STRESS PERIOD   32   TIME STEP   30



 STREAM LISTING     PERIOD     32   STEP       30

 LAYER ROW COL. STREAM  RCH.  FLOW INTO     FLOW TO   FLOW OUT OF   OVRLND.     DIRECT     STREAM       STREAM     STREAM     STREAM   STREAMBED  STREAMBED
                SEG.NO.  NO.  STRM. RCH.    AQUIFER    STRM. RCH.    RUNOFF     PRECIP       ET          HEAD       DEPTH      WIDTH   CONDCTNC.   GRADIENT

   1    1    1     1     1    2.8124E+01  2.5914E-01   2.7865E+01  0.000E+00  0.000E+00  0.000E+00  1.09427E+03  1.223E+00  1.364E+01  6.136E-02  1.408E+00
   1    2    2     1     2    2.7865E+01  4.0087E-01   2.7464E+01  0.000E+00  0.000E+00  0.000E+00  1.08928E+03  1.218E+00  1.358E+01  9.503E-02  1.406E+00
   1    3    3     1     3    2.7464E+01  3.4142E-01   2.7123E+01  0.000E+00  0.000E+00  0.000E+00  1.08363E+03  1.213E+00  1.351E+01  8.103E-02  1.404E+00
   1    3    4     1     4    2.7123E+01  3.1402E-01   2.6809E+01  0.000E+00  0.000E+00  0.000E+00  1.07862E+03  1.209E+00  1.344E+01  7.461E-02  1.403E+00
   1    4    5     2     1    2.4809E+01  3.2738E-01   2.4481E+01  0.000E+00  0.000E+00  0.000E+00  1.07313E+03  1.197E+00  1.200E+01  7.800E-02  1.399E+00
   1    5    6     2     2    2.4481E+01  2.5133E-01   2.4230E+01  0.000E+00  0.000E+00  0.000E+00  1.06770E+03  1.189E+00  1.200E+01  6.000E-02  1.396E+00
   1    6    6     2     3    2.4230E+01  2.5089E-01   2.3979E+01  0.000E+00  0.000E+00  0.000E+00  1.06297E+03  1.181E+00  1.200E+01  6.000E-02  1.394E+00
   1    7    6     2     4    2.3979E+01  2.5044E-01   2.3729E+01  0.000E+00  0.000E+00  0.000E+00  1.05825E+03  1.174E+00  1.200E+01  6.000E-02  1.391E+00
   1    8    6     2     5    2.3729E+01  2.5000E-01   2.3479E+01  0.000E+00  0.000E+00  0.000E+00  1.05353E+03  1.167E+00  1.200E+01  6.000E-02  1.389E+00
   1    3    5     3     1    2.0000E+00  2.8252E-01   1.7175E+00  0.000E+00  0.000E+00  0.000E+00  1.07555E+03  1.909E+00  9.636E+00  7.227E-02  1.955E+00
   1    3    6     3     2    1.7175E+00  2.4905E-01   1.4684E+00  0.000E+00  0.000E+00  0.000E+00  1.07264E+03  1.727E+00  8.909E+00  6.682E-02  1.864E+00
   1    3    7     3     3    1.4684E+00  1.9718E-01   1.2712E+00  0.000E+00  0.000E+00  0.000E+00  1.06987E+03  1.555E+00  8.218E+00  5.547E-02  1.777E+00
   1    4    8     3     4    1.2712E+00  2.2567E-01   1.0456E+00  0.000E+00  0.000E+00  0.000E+00  1.06682E+03  1.364E+00  7.455E+00  6.709E-02  1.682E+00
   1    5    8     3     5    1.0456E+00  1.5790E-01   8.8768E-01  0.000E+00  0.000E+00  0.000E+00  1.06362E+03  1.164E+00  6.655E+00  4.991E-02  1.582E+00
   1    6    8     3     6    8.8768E-01  5.5980E-02   8.3170E-01  0.000E+00  0.000E+00  0.000E+00  1.06158E+03  1.036E+00  6.145E+00  1.844E-02  1.518E+00
   1    5   10     4     1    1.0000E+01  9.0919E-02   9.9091E+00  0.000E+00  0.000E+00  0.000E+00  1.07836E+03  6.368E-01  1.000E+01  2.500E-02  1.212E+00
   1    5    9     4     2    9.9091E+00  1.8158E-01   9.7275E+00  0.000E+00  0.000E+00  0.000E+00  1.07154E+03  6.315E-01  1.000E+01  5.000E-02  1.211E+00
   1    6    8     4     3    9.7275E+00  1.2689E-01   9.6006E+00  0.000E+00  0.000E+00  0.000E+00  1.06381E+03  6.256E-01  1.000E+01  3.500E-02  1.209E+00
   1    6    8     5     1    1.0432E+01  2.2686E-01   1.0205E+01  0.000E+00  0.000E+00  0.000E+00  1.05868E+03  6.790E-01  1.542E+01  6.166E-02  1.226E+00
   1    7    7     5     2    1.0205E+01  2.7894E-01   9.9265E+00  0.000E+00  0.000E+00  0.000E+00  1.05417E+03  6.732E-01  1.519E+01  7.594E-02  1.224E+00
   1    8    7     5     3    9.9265E+00  1.9221E-01   9.7343E+00  0.000E+00  0.000E+00  0.000E+00  1.04992E+03  6.676E-01  1.497E+01  5.241E-02  1.223E+00
   1    8    6     5     4    9.7343E+00  1.3577E-01   9.5985E+00  0.000E+00  0.000E+00  0.000E+00  1.04691E+03  6.637E-01  1.482E+01  3.706E-02  1.221E+00
   1    9    6     6     1    9.5985E+00  2.2097E-01   9.3776E+00  0.000E+00  0.000E+00  0.000E+00  1.04341E+03  6.828E-01  1.200E+01  6.000E-02  1.228E+00
   1   10    7     6     2    9.3776E+00  2.2039E-01   9.1572E+00  0.000E+00  0.000E+00  0.000E+00  1.03885E+03  6.732E-01  1.200E+01  6.000E-02  1.224E+00
   1   11    7     6     3    9.1572E+00  2.1981E-01   8.9374E+00  0.000E+00  0.000E+00  0.000E+00  1.03430E+03  6.636E-01  1.200E+01  6.000E-02  1.221E+00
   1   12    7     6     4    8.9374E+00  2.1923E-01   8.7181E+00  0.000E+00  0.000E+00  0.000E+00  1.02974E+03  6.539E-01  1.200E+01  6.000E-02  1.218E+00
   1   13    7     6     5    8.7181E+00 -2.7576E-02   8.7457E+00  0.000E+00  0.000E+00  0.000E+00  1.02656E+03  6.496E-01  1.200E+01  2.400E-01 -3.830E-02
   1   14    9     7     1    1.5000E+02  1.3803E+00   1.4862E+02  0.000E+00  0.000E+00  0.000E+00  1.03987E+03  2.288E+00  5.529E+01  5.593E-01  8.227E-01
   1   13    8     7     2    1.4862E+02  1.9648E+00   1.4665E+02  0.000E+00  0.000E+00  0.000E+00  1.03478E+03  2.279E+00  5.525E+01  6.147E-01  1.065E+00
   1   13    7     7     3    1.4665E+02  1.6834E+00   1.4497E+02  0.000E+00  0.000E+00  0.000E+00  1.02969E+03  2.269E+00  5.521E+01  5.584E-01  1.005E+00
   1   13    6     8     1    1.5372E+02  1.0366E+00   1.5268E+02  0.000E+00  0.000E+00  0.000E+00  1.02471E+03  2.839E+00  4.117E+01  4.195E-01  8.237E-01
   1   13    5     8     2    1.5268E+02  2.9492E-01   1.5239E+02  0.000E+00  0.000E+00  0.000E+00  1.01846E+03  2.835E+00  4.110E+01  4.188E-01  2.347E-01
   1   13    4     8     3    1.5239E+02 -2.0077E+00   1.5439E+02  0.000E+00  0.000E+00  0.000E+00  1.01222E+03  2.841E+00  4.119E+01  4.197E+00 -1.595E-01
   1   13    3     8     4    1.5439E+02 -3.4322E+00   1.5783E+02  0.000E+00  0.000E+00  0.000E+00  1.00598E+03  2.859E+00  4.146E+01  4.225E+00 -2.708E-01
   1   13    2     8     5    1.5783E+02 -2.5393E+00   1.6036E+02  0.000E+00  0.000E+00  0.000E+00  9.99755E+02  2.880E+00  4.176E+01  4.255E+00 -1.989E-01
   1   13    1     8     6    1.6036E+02 -1.9896E+00   1.6235E+02  0.000E+00  0.000E+00  0.000E+00  9.94770E+02  2.895E+00  4.198E+01  2.567E+00 -2.584E-01
   1    8    6     9     1    2.3479E+01  0.0000E+00   2.3479E+01  0.000E+00  0.000E+00  0.000E+00  1.08253E+03  3.782E+00  4.000E+00  0.000E+00  2.261E+00
   1    8    5     9     2    2.3479E+01  0.0000E+00   2.3479E+01  0.000E+00  0.000E+00  0.000E+00  1.08203E+03  3.782E+00  4.000E+00  0.000E+00  2.261E+00





UNSATURATED ZONE PACKAGE VOLUMETRIC BUDGET FOR  TIME STEP    30 STRESS PERIOD   32
  ------------------------------------------------------------------------------



     CUMULATIVE VOLUMES      L**3       RATES FOR THIS TIME STEP      L**3/T
     ------------------                 ------------------------

           IN:                                      IN:
           ---                                      ---
        INFILTRATION =  1392650729.3044          INFILTRATION =          64.1948

          OUT:                                     OUT:
          ----                                     ----
              UZF ET =  1297667290.6525                UZF ET =          64.0886
        UZF RECHARGE =      717884.2805          UZF RECHARGE =       0.0000E+00

            IN - OUT =    94265554.3714              IN - OUT =           0.1061

          STORAGE:                                 STORAGE:
          --------                                 --------
      STORAGE CHANGE =    94265536.3760        STORAGE CHANGE =           0.1061

 PERCENT DISCREPANCY IS DIFFERENCE BETWEEN IN-OUT MINUS CHANGE IN STORAGE
 DIVIDED BY THE AVERAGE OF IN AND OUT TIMES 100

 PERCENT DISCREPANCY =           0.00     PERCENT DISCREPANCY =           0.00






1
  VOLUMETRIC BUDGET FOR AGRICULTURAL FIELDS AT  END OF TIME STEP   30, STRESS PERIOD  32
  ------------------------------------------------------------------------------

     CUMULATIVE VOLUMES      L**3       RATES FOR THIS TIME STEP      L**3/T
     ------------------                 ------------------------

           IN:                                      IN:
           ---                                      ---
               AG WELLS  =   514978336.0000                 AG WELLS  =          36.3081
      DIVERSION SEGMENTS =   518245696.0000        DIVERSION SEGMENTS =          23.4787
           GW IRRIGATION =           0.0000             GW IRRIGATION =           0.0000
           SW IRRIGATION =           0.0000             SW IRRIGATION =           0.0000
        SYSTEM LOSSES GW =           0.0000          SYSTEM LOSSES GW =           0.0000
        SYSTEM LOSSES SW =           0.0000          SYSTEM LOSSES SW =           0.0000

                TOTAL IN =  1033224064.0000                  TOTAL IN =          59.7868

          OUT:                                     OUT:
          ----                                     ----
               AG WELLS  =           0.0000                 AG WELLS  =           0.0000
      DIVERSION SEGMENTS =           0.0000        DIVERSION SEGMENTS =           0.0000
           GW IRRIGATION =   514978336.0000             GW IRRIGATION =          36.3081
           SW IRRIGATION =   518255936.0000             SW IRRIGATION =          23.4791
        SYSTEM LOSSES GW =           0.0000          SYSTEM LOSSES GW =           0.0000
        SYSTEM LOSSES SW =           0.0000          SYSTEM LOSSES SW =           0.0000

               TOTAL OUT =  1033234304.0000                 TOTAL OUT =          59.7873

                IN - OUT =      -10240.0000                  IN - OUT =      -4.6921E-04

     PERCENT DISCREPANCY =          -0.00         PERCENT DISCREPANCY =          -0.00



1
  VOLUMETRIC BUDGET FOR ENTIRE MODEL AT END OF TIME STEP   30, STRESS PERIOD  32
  ------------------------------------------------------------------------------

     CUMULATIVE VOLUMES      L**3       RATES FOR THIS TIME STEP      L**3/T
     ------------------                 ------------------------

           IN:                                      IN:
           ---                                      ---
             STORAGE     =   730873088.0000               STORAGE     =          34.3593
       CONSTANT HEAD     =           0.0000         CONSTANT HEAD     =           0.0000
     HEAD DEP BOUNDS     =    23521314.0000       HEAD DEP BOUNDS     =           0.2888
      STREAM LEAKAGE     =   962396416.0000        STREAM LEAKAGE     =          12.2875
        UZF RECHARGE     =      717884.3750          UZF RECHARGE     =           0.0000
               GW ET     =           0.0000                 GW ET     =           0.0000
     SURFACE LEAKAGE     =           0.0000       SURFACE LEAKAGE     =           0.0000
           AG WELLS      =           0.0000             AG WELLS      =           0.0000

                TOTAL IN =  1717508608.0000                  TOTAL IN =          46.9355

          OUT:                                     OUT:
          ----                                     ----
             STORAGE     =   348859392.0000               STORAGE     =           0.3431
       CONSTANT HEAD     =           0.0000         CONSTANT HEAD     =           0.0000
     HEAD DEP BOUNDS     =    23502374.0000       HEAD DEP BOUNDS     =           0.2867
      STREAM LEAKAGE     =   830128320.0000        STREAM LEAKAGE     =           9.9964
        UZF RECHARGE     =           0.0000          UZF RECHARGE     =           0.0000
               GW ET     =           0.0000                 GW ET     =           0.0000
     SURFACE LEAKAGE     =           0.0000       SURFACE LEAKAGE     =           0.0000
           AG WELLS      =   514978336.0000             AG WELLS      =          36.3081

               TOTAL OUT =  1717468416.0000                 TOTAL OUT =          46.9344

                IN - OUT =       40192.0000                  IN - OUT =       1.1711E-03

     PERCENT DISCREPANCY =           0.00         PERCENT DISCREPANCY =           0.00






         TIME SUMMARY AT END OF TIME STEP   30 IN STRESS PERIOD   32
                    SECONDS     MINUTES      HOURS       DAYS        YEARS
                    -----------------------------------------------------------
   TIME STEP LENGTH  87667.      1461.1      24.352      1.0147     2.77799E-03
 STRESS PERIOD TIME 2.63000E+06  43833.      730.56      30.440     8.33397E-02
         TOTAL TIME 8.16164E+07 1.36027E+06  22671.      944.63      2.5863    
1
1
                            STRESS PERIOD NO.   33, LENGTH =   2630000.    
                            -----------------------------------------------

                              NUMBER OF TIME STEPS =    30

                               MULTIPLIER FOR DELT =     1.000

                            INITIAL TIME STEP SIZE =   87666.66    

 REUSING NON-PARAMETER GHB CELLS FROM LAST STRESS PERIOD

      2 GHB CELLS

 REUSING STREAM SEGMENT DATA FROM LAST STRESS PERIOD



            AREAL INFILTRATION RATE
 READING ON UNIT   19 WITH FORMAT: (10F4.0)            

            1           2           3           4           5           6           7           8           9          10
 ........................................................................................................................
   1   1.2000E-09   0.000       0.000       0.000       0.000       0.000       0.000       0.000       0.000       0.000    
   2   2.1000E-09  2.0000E-09  8.0000E-10  8.5000E-09   0.000       0.000       0.000       0.000       0.000       0.000    
   3   5.0000E-10  1.1000E-09  8.8000E-09  5.5000E-09   0.000       0.000       0.000       0.000       0.000       0.000    
   4   8.5000E-09  1.1000E-09  1.1000E-09  1.1000E-09  2.0000E-09   0.000       0.000       0.000       0.000       0.000    
   5   8.5000E-09  1.1000E-09  1.1000E-09  1.1000E-09  1.1000E-09   0.000       0.000       0.000       0.000       0.000    
   6   8.5000E-09  5.2000E-09  2.1000E-09  1.1000E-09  1.5000E-09   0.000       0.000       0.000       0.000       0.000    
   7   8.5000E-09  5.2000E-09  2.1000E-09  1.2000E-09  2.0000E-09   0.000       0.000       0.000       0.000       0.000    
   8   5.0000E-10  5.2000E-09  2.1000E-09  1.2000E-09  5.0000E-09   0.000       0.000       0.000       0.000       0.000    
   9   5.0000E-10  5.2000E-09  2.1000E-09  1.2000E-09  5.0000E-09   0.000       0.000       0.000       0.000       0.000    
  10   5.0000E-10  5.2000E-09  2.1000E-09  1.2000E-09  5.8000E-09   0.000       0.000       0.000       0.000       0.000    
  11   1.0000E-10  1.1000E-09  1.1000E-09  1.2000E-09  5.0000E-09   0.000       0.000       0.000       0.000       0.000    
  12   1.1000E-09  1.1000E-09  1.1000E-09  1.1000E-09  2.0000E-09   0.000       0.000       0.000       0.000       0.000    
  13   1.1000E-09  2.2000E-09  2.2000E-09  2.1000E-09  1.0000E-09   0.000       0.000       0.000       0.000       0.000    
  14   2.0000E-10  5.5000E-09  5.5000E-09  5.2000E-09  1.0000E-09   0.000       0.000       0.000       0.000       0.000    
  15    0.000      8.8000E-09  8.8000E-09   0.000       0.000       0.000       0.000       0.000       0.000       0.000    

                  ET RATE =  3.250000E-07

 USING ET EXTINCTION DEPTH FROM PREVIOUS STRESS PERIOD. CURRENT PERIOD IS:      33

 USING EXTINCTION WATER CONTENT FROM PREVIOUS STRESS PERIOD. CURRENT PERIOD IS:      33

 USING AIR ENTRY PRESSURE FROM PREVIOUS STRESS PERIOD. CURRENT PERIOD IS:      33

 USING ROOT PRESSURE HEAD FROM PREVIOUS STRESS PERIOD. CURRENT PERIOD IS:      33

 USING ROOT ACTIVITY FROM PREVIOUS STRESS PERIOD. CURRENT PERIOD IS:      33

 PROCESSING AG STRESS PERIOD DATA

 READING AG STRESS PERIOD DATA

 READING IRRIGATION SEGMENT

 READING IRRIGATION WELL

 READING SUPPLEMENTAL WELL

 END PROCESSING AG STRESS PERIOD DATA OPTIONS
 
 SOLVING FOR HEAD 
                                                   Max.-Head-Change                         Max.-Flux-Residual
  Residual-Control   Outer-Iter.   Inner-Iter.     Column Row Layer    Maximum-Head-Change  Column Row Layer    Maximum-Flux-Residual          L2-NORM 
          0                 1           2             4    7     1      -0.4943872838E-01       4    7    1        -0.2607400969E+01      0.5550445349E+01
          0                 2           2             4   13     1      -0.1028494479E-01       4   13    1        -0.6044603406E+00      0.1148312218E+01
          0                 3           2             4   13     1       0.7000062397E-03       4   13    1         0.4229567569E-01      0.9398653812E-01
          0                 4           1             5    8     1      -0.9688843417E-04       5    8    1        -0.5498463058E-02      0.1341819392E-01

    ------------------------------------------------
       NWT REQUIRED            4 OUTER ITERATIONS 
       AND A TOTAL OF          7 INNER ITERATIONS.
    ------------------------------------------------

 NO OUTPUT CONTROL FOR STRESS PERIOD   33   TIME STEP    1
 
 SOLVING FOR HEAD 
                                                   Max.-Head-Change                         Max.-Flux-Residual
  Residual-Control   Outer-Iter.   Inner-Iter.     Column Row Layer    Maximum-Head-Change  Column Row Layer    Maximum-Flux-Residual          L2-NORM 
          0                 1           2             4    7     1      -0.6415330667E-01       4    7    1        -0.3374572603E+01      0.7164967655E+01
          0                 2           2             4   13     1      -0.8113243661E-02       4   13    1        -0.4768430337E+00      0.1047302343E+01
          0                 3           2             4    7     1      -0.6258579522E-03       4    7    1        -0.3470654878E-01      0.9440580512E-01
          0                 4           1             5    8     1      -0.9510890909E-04       5    8    1        -0.5397402422E-02      0.1310135132E-01

    ------------------------------------------------
       NWT REQUIRED            4 OUTER ITERATIONS 
       AND A TOTAL OF          7 INNER ITERATIONS.
    ------------------------------------------------

 NO OUTPUT CONTROL FOR STRESS PERIOD   33   TIME STEP    2
 
 SOLVING FOR HEAD 
                                                   Max.-Head-Change                         Max.-Flux-Residual
  Residual-Control   Outer-Iter.   Inner-Iter.     Column Row Layer    Maximum-Head-Change  Column Row Layer    Maximum-Flux-Residual          L2-NORM 
          0                 1           2             4    7     1      -0.6334832384E-01       4    7    1        -0.3331920720E+01      0.7106274232E+01
          0                 2           2             4   13     1      -0.8115118861E-02       4   13    1        -0.4769521749E+00      0.1043095348E+01
          0                 3           2             4    7     1      -0.6250237811E-03       4    7    1        -0.3465612708E-01      0.9449720062E-01
          0                 4           1             5    8     1      -0.9755401397E-04       5    8    1        -0.5535631703E-02      0.1344147666E-01

    ------------------------------------------------
       NWT REQUIRED            4 OUTER ITERATIONS 
       AND A TOTAL OF          7 INNER ITERATIONS.
    ------------------------------------------------

 NO OUTPUT CONTROL FOR STRESS PERIOD   33   TIME STEP    3
 
 SOLVING FOR HEAD 
                                                   Max.-Head-Change                         Max.-Flux-Residual
  Residual-Control   Outer-Iter.   Inner-Iter.     Column Row Layer    Maximum-Head-Change  Column Row Layer    Maximum-Flux-Residual          L2-NORM 
          0                 1           2             4    7     1      -0.5197263534E-01       4    7    1        -0.2737412869E+01      0.5885696307E+01
          0                 2           2             4   13     1      -0.8116854253E-02       4   13    1        -0.4770531692E+00      0.9131222519E+00
          0                 3           2             4    7     1      -0.2843280341E-02       4    7    1        -0.1486929049E+00      0.3515580003E+00
          0                 4           2             4    7     1      -0.1167901747E-02       5    8    1        -0.6217001382E-01      0.1511015666E+00
          0                 5           2             4    7     1      -0.6093292598E-03       4    7    1        -0.3181395204E-01      0.7774719538E-01
          0                 6           2             4    7     1      -0.3021176596E-03       5    8    1        -0.1578379899E-01      0.3865114933E-01
          0                 7           2             4    7     1      -0.1513089601E-03       4    7    1        -0.7899390848E-02      0.1934724717E-01
          0                 8           1             4    7     1      -0.7562946755E-04       4    7    1        -0.3948372523E-02      0.9671455642E-02

    ------------------------------------------------
       NWT REQUIRED            8 OUTER ITERATIONS 
       AND A TOTAL OF         15 INNER ITERATIONS.
    ------------------------------------------------

 NO OUTPUT CONTROL FOR STRESS PERIOD   33   TIME STEP    4
 
 SOLVING FOR HEAD 
                                                   Max.-Head-Change                         Max.-Flux-Residual
  Residual-Control   Outer-Iter.   Inner-Iter.     Column Row Layer    Maximum-Head-Change  Column Row Layer    Maximum-Flux-Residual          L2-NORM 
          0                 1           2             4    7     1      -0.5081842298E-01       4    7    1        -0.2676552920E+01      0.5793341546E+01
          0                 2           2             4   13     1      -0.8118473812E-02       4   13    1        -0.4771474123E+00      0.9244128886E+00
          0                 3           2             4    7     1      -0.2912086956E-02       4    7    1        -0.1522790379E+00      0.3605508195E+00
          0                 4           2             4    7     1      -0.1211240043E-02       5    8    1        -0.6440748023E-01      0.1566084391E+00
          0                 5           2             4    7     1      -0.6300957752E-03       4    7    1        -0.3289799599E-01      0.8040599995E-01
          0                 6           2             4    7     1      -0.3126003142E-03       5    8    1        -0.1633076344E-01      0.3999123565E-01
          0                 7           2             4    7     1      -0.1565449143E-03       4    7    1        -0.8172729085E-02      0.2001680627E-01
          0                 8           1             4    7     1      -0.7824798248E-04       4    7    1        -0.4085070026E-02      0.1000628359E-01

    ------------------------------------------------
       NWT REQUIRED            8 OUTER ITERATIONS 
       AND A TOTAL OF         15 INNER ITERATIONS.
    ------------------------------------------------

 NO OUTPUT CONTROL FOR STRESS PERIOD   33   TIME STEP    5
 
 SOLVING FOR HEAD 
                                                   Max.-Head-Change                         Max.-Flux-Residual
  Residual-Control   Outer-Iter.   Inner-Iter.     Column Row Layer    Maximum-Head-Change  Column Row Layer    Maximum-Flux-Residual          L2-NORM 
          0                 1           2             4    7     1      -0.4967931794E-01       4    7    1        -0.2616493374E+01      0.5702748722E+01
          0                 2           2             4   13     1      -0.8120005746E-02       4   13    1        -0.4772365631E+00      0.9369899148E+00
          0                 3           2             4    7     1      -0.2981036636E-02       4    7    1        -0.1558727386E+00      0.3695608341E+00
          0                 4           2             4    7     1      -0.1254536767E-02       5    8    1        -0.6664358559E-01      0.1621109133E+00
          0                 5           2             4    7     1      -0.6508665162E-03       4    7    1        -0.3398225859E-01      0.8306525404E-01
          0                 6           2             4    7     1      -0.3230825803E-03       5    8    1        -0.1687771426E-01      0.4133127717E-01
          0                 7           2             4    7     1      -0.1617717913E-03       4    7    1        -0.8445592678E-02      0.2068520181E-01
          0                 8           1             4    7     1      -0.8085827952E-04       4    7    1        -0.4221338138E-02      0.1034005989E-01

    ------------------------------------------------
       NWT REQUIRED            8 OUTER ITERATIONS 
       AND A TOTAL OF         15 INNER ITERATIONS.
    ------------------------------------------------

 NO OUTPUT CONTROL FOR STRESS PERIOD   33   TIME STEP    6
 
 SOLVING FOR HEAD 
                                                   Max.-Head-Change                         Max.-Flux-Residual
  Residual-Control   Outer-Iter.   Inner-Iter.     Column Row Layer    Maximum-Head-Change  Column Row Layer    Maximum-Flux-Residual          L2-NORM 
          0                 1           2             4    7     1      -0.4855530572E-01       4    7    1        -0.2557233351E+01      0.5613945250E+01
          0                 2           2             4   13     1      -0.8121420368E-02       4   13    1        -0.4773188733E+00      0.9507775976E+00
          0                 3           2             4    7     1      -0.3049982179E-02       4    7    1        -0.1594663210E+00      0.3785689079E+00
          0                 4           2             4    7     1      -0.1297788371E-02       5    8    1        -0.6887810329E-01      0.1676084688E+00
          0                 5           2             4    7     1      -0.6716053010E-03       4    7    1        -0.3506485091E-01      0.8572033277E-01
          0                 6           2             4    7     1      -0.3335224076E-03       5    8    1        -0.1742245582E-01      0.4266589624E-01
          0                 7           2             4    7     1      -0.1669937949E-03       4    7    1        -0.8718201139E-02      0.2135297201E-01
          0                 8           1             4    7     1      -0.8345993872E-04       4    7    1        -0.4357154933E-02      0.1067273151E-01

    ------------------------------------------------
       NWT REQUIRED            8 OUTER ITERATIONS 
       AND A TOTAL OF         15 INNER ITERATIONS.
    ------------------------------------------------

 NO OUTPUT CONTROL FOR STRESS PERIOD   33   TIME STEP    7
 
 SOLVING FOR HEAD 
                                                   Max.-Head-Change                         Max.-Flux-Residual
  Residual-Control   Outer-Iter.   Inner-Iter.     Column Row Layer    Maximum-Head-Change  Column Row Layer    Maximum-Flux-Residual          L2-NORM 
          0                 1           2             4    7     1      -0.4744634651E-01       4    7    1        -0.2498771737E+01      0.5526924096E+01
          0                 2           2             4   13     1      -0.8122756349E-02       4   13    1        -0.4773966641E+00      0.9657004585E+00
          0                 3           2             4    7     1      -0.3118956977E-02       4    7    1        -0.1630615388E+00      0.3875787387E+00
          0                 4           2             4    7     1      -0.1340927575E-02       5    8    1        -0.7110748718E-01      0.1730925588E+00
          0                 5           2             4    7     1      -0.6923188564E-03       4    7    1        -0.3614612434E-01      0.8837209748E-01
          0                 6           2             4    7     1      -0.3439739233E-03       5    8    1        -0.1796781360E-01      0.4400201491E-01
          0                 7           2             4    7     1      -0.1722055123E-03       4    7    1        -0.8990271901E-02      0.2201942358E-01
          0                 8           1             4    7     1      -0.8609003579E-04       4    7    1        -0.4494456021E-02      0.1100903751E-01

    ------------------------------------------------
       NWT REQUIRED            8 OUTER ITERATIONS 
       AND A TOTAL OF         15 INNER ITERATIONS.
    ------------------------------------------------

 NO OUTPUT CONTROL FOR STRESS PERIOD   33   TIME STEP    8
 
 SOLVING FOR HEAD 
                                                   Max.-Head-Change                         Max.-Flux-Residual
  Residual-Control   Outer-Iter.   Inner-Iter.     Column Row Layer    Maximum-Head-Change  Column Row Layer    Maximum-Flux-Residual          L2-NORM 
          0                 1           2             4    7     1      -0.4635208062E-01       4    7    1        -0.2441089485E+01      0.5441668598E+01
          0                 2           2             4   13     1      -0.8124033590E-02       4   13    1        -0.4774710516E+00      0.9816985833E+00
          0                 3           2             4    7     1      -0.3187971129E-02       4    7    1        -0.1666589169E+00      0.3965917308E+00
          0                 4           2             4    7     1      -0.1383999036E-02       5    8    1        -0.7333403196E-01      0.1785687846E+00
          0                 5           2             4    7     1      -0.7130027148E-03       4    7    1        -0.3722584569E-01      0.9101997806E-01
          0                 6           2             4    7     1      -0.3543827730E-03       5    8    1        -0.1851094959E-01      0.4533268200E-01
          0                 7           2             4    7     1      -0.1774123782E-03       4    7    1        -0.9262088720E-02      0.2268525271E-01
          0                 8           1             4    7     1      -0.8868409137E-04       4    7    1        -0.4629875169E-02      0.1134073451E-01

    ------------------------------------------------
       NWT REQUIRED            8 OUTER ITERATIONS 
       AND A TOTAL OF         15 INNER ITERATIONS.
    ------------------------------------------------

 NO OUTPUT CONTROL FOR STRESS PERIOD   33   TIME STEP    9
 
 SOLVING FOR HEAD 
                                                   Max.-Head-Change                         Max.-Flux-Residual
  Residual-Control   Outer-Iter.   Inner-Iter.     Column Row Layer    Maximum-Head-Change  Column Row Layer    Maximum-Flux-Residual          L2-NORM 
          0                 1           2             4    7     1      -0.4527191010E-01       4    7    1        -0.2384154790E+01      0.5358161571E+01
          0                 2           2             4   13     1      -0.8125173502E-02       4   13    1        -0.4775374282E+00      0.9986962907E+00
          0                 3           2             4    7     1      -0.3257021393E-02       4    7    1        -0.1702582804E+00      0.4056069767E+00
          0                 4           2             4    7     1      -0.1426984808E-02       5    8    1        -0.7555675232E-01      0.1840348458E+00
          0                 5           2             4    7     1      -0.7336495371E-03       4    7    1        -0.3830363175E-01      0.9366304210E-01
          0                 6           2             4    7     1      -0.3648044907E-03       5    8    1        -0.1905476265E-01      0.4666499887E-01
          0                 7           2             4    7     1      -0.1826088401E-03       4    7    1        -0.9533361670E-02      0.2334974881E-01
          0                 8           1             4    7     1      -0.9127919466E-04       4    7    1        -0.4765348659E-02      0.1167256479E-01

    ------------------------------------------------
       NWT REQUIRED            8 OUTER ITERATIONS 
       AND A TOTAL OF         15 INNER ITERATIONS.
    ------------------------------------------------

 NO OUTPUT CONTROL FOR STRESS PERIOD   33   TIME STEP   10
 
 SOLVING FOR HEAD 
                                                   Max.-Head-Change                         Max.-Flux-Residual
  Residual-Control   Outer-Iter.   Inner-Iter.     Column Row Layer    Maximum-Head-Change  Column Row Layer    Maximum-Flux-Residual          L2-NORM 
          0                 1           2             4    7     1      -0.4420591963E-01       4    7    1        -0.2327973110E+01      0.5276393099E+01
          0                 2           2             4   13     1      -0.8126297229E-02       4   13    1        -0.4776029210E+00      0.1016637921E+01
          0                 3           2             4    7     1      -0.3326067507E-02       4    7    1        -0.1738575384E+00      0.4146194936E+00
          0                 4           2             4    7     1      -0.1469888913E-02       5    8    1        -0.7777585581E-01      0.1894912704E+00
          0                 5           2             4    7     1      -0.7542680519E-03       4    7    1        -0.3937993847E-01      0.9630240305E-01
          0                 6           2             4    7     1      -0.3752016687E-03       5    8    1        -0.1959729979E-01      0.4799418217E-01
          0                 7           2             4    7     1      -0.1877986370E-03       4    7    1        -0.9804286050E-02      0.2401339038E-01
          0                 8           1             4    7     1      -0.9387497274E-04       4    7    1        -0.4900857051E-02      0.1200448064E-01

    ------------------------------------------------
       NWT REQUIRED            8 OUTER ITERATIONS 
       AND A TOTAL OF         15 INNER ITERATIONS.
    ------------------------------------------------

 NO OUTPUT CONTROL FOR STRESS PERIOD   33   TIME STEP   11
 
 SOLVING FOR HEAD 
                                                   Max.-Head-Change                         Max.-Flux-Residual
  Residual-Control   Outer-Iter.   Inner-Iter.     Column Row Layer    Maximum-Head-Change  Column Row Layer    Maximum-Flux-Residual          L2-NORM 
          0                 1           2             4    7     1      -0.4315364294E-01       4    7    1        -0.2272519657E+01      0.5196361093E+01
          0                 2           2             4   13     1      -0.8127343993E-02       4   13    1        -0.4776639475E+00      0.1035448356E+01
          0                 3           2             4    7     1      -0.3395127642E-02       4    7    1        -0.1774576351E+00      0.4236309785E+00
          0                 4           2             4    7     1      -0.1512755202E-02       5    8    1        -0.7999357816E-01      0.1949436003E+00
          0                 5           2             4    7     1      -0.7748447404E-03       4    7    1        -0.4045405999E-01      0.9893633616E-01
          0                 6           2             4    7     1      -0.3855847926E-03       5    8    1        -0.2013910791E-01      0.4932157218E-01
          0                 7           2             4    7     1      -0.1929715874E-03       4    7    1        -0.1007433025E-01      0.2467487518E-01
          0                 8           1             4    7     1      -0.9647244258E-04       4    7    1        -0.5036453425E-02      0.1233661201E-01

    ------------------------------------------------
       NWT REQUIRED            8 OUTER ITERATIONS 
       AND A TOTAL OF         15 INNER ITERATIONS.
    ------------------------------------------------

 NO OUTPUT CONTROL FOR STRESS PERIOD   33   TIME STEP   12
 
 SOLVING FOR HEAD 
                                                   Max.-Head-Change                         Max.-Flux-Residual
  Residual-Control   Outer-Iter.   Inner-Iter.     Column Row Layer    Maximum-Head-Change  Column Row Layer    Maximum-Flux-Residual          L2-NORM 
          0                 1           2             4    7     1      -0.4211475738E-01       4    7    1        -0.2217777071E+01      0.5118052176E+01
          0                 2           2             4   13     1      -0.8128336013E-02       4   13    1        -0.4777218376E+00      0.1055085962E+01
          0                 3           2             4    7     1      -0.3464222313E-02       4    7    1        -0.1810596372E+00      0.4326445855E+00
          0                 4           2             4    7     1      -0.1555508549E-02       5    8    1        -0.8220598604E-01      0.2003822268E+00
          0                 5           2             4    7     1      -0.7953962463E-03       4    7    1        -0.4152686534E-01      0.1015669731E+00
          0                 6           2             4    7     1      -0.3959521958E-03       5    8    1        -0.2068009998E-01      0.5064695604E-01
          0                 7           2             4    7     1      -0.1981461238E-03       4    7    1        -0.1034445667E-01      0.2533656068E-01
          0                 8           1             4    7     1      -0.9906062730E-04       4    7    1        -0.5171564766E-02      0.1266755542E-01

    ------------------------------------------------
       NWT REQUIRED            8 OUTER ITERATIONS 
       AND A TOTAL OF         15 INNER ITERATIONS.
    ------------------------------------------------

 NO OUTPUT CONTROL FOR STRESS PERIOD   33   TIME STEP   13
 
 SOLVING FOR HEAD 
                                                   Max.-Head-Change                         Max.-Flux-Residual
  Residual-Control   Outer-Iter.   Inner-Iter.     Column Row Layer    Maximum-Head-Change  Column Row Layer    Maximum-Flux-Residual          L2-NORM 
          0                 1           2             4    7     1      -0.4108894815E-01       4    7    1        -0.2163729091E+01      0.5041563190E+01
          0                 2           2             4   13     1      -0.8129258749E-02       4   13    1        -0.4777756896E+00      0.1075480012E+01
          0                 3           2             4    7     1      -0.3533333753E-02       4    7    1        -0.1846626191E+00      0.4416575851E+00
          0                 4           2             4    7     1      -0.1598187264E-02       5    8    1        -0.8441503667E-01      0.2058120179E+00
          0                 5           2             4    7     1      -0.8159461387E-03       4    7    1        -0.4259958502E-01      0.1041973299E+00
          0                 6           2             4    7     1      -0.4062741206E-03       5    8    1        -0.2121872198E-01      0.5196652795E-01
          0                 7           2             4    7     1      -0.2033160890E-03       4    7    1        -0.1061434382E-01      0.2599765948E-01
          0                 8           1             4    7     1      -0.1016492763E-03       4    7    1        -0.5306700025E-02      0.1299855756E-01
          0                 9           1             4    7     1      -0.5082094754E-04       4    7    1        -0.2653158806E-02      0.6498722152E-02

    ------------------------------------------------
       NWT REQUIRED            9 OUTER ITERATIONS 
       AND A TOTAL OF         16 INNER ITERATIONS.
    ------------------------------------------------

 NO OUTPUT CONTROL FOR STRESS PERIOD   33   TIME STEP   14
 
 SOLVING FOR HEAD 
                                                   Max.-Head-Change                         Max.-Flux-Residual
  Residual-Control   Outer-Iter.   Inner-Iter.     Column Row Layer    Maximum-Head-Change  Column Row Layer    Maximum-Flux-Residual          L2-NORM 
          0                 1           2             4    7     1      -0.4006192812E-01       4    7    1        -0.2109631152E+01      0.4965445673E+01
          0                 2           2             4   13     1      -0.8130102438E-02       4   13    1        -0.4778249473E+00      0.1097220243E+01
          0                 3           2             4    7     1      -0.3605067431E-02       4    7    1        -0.1884026154E+00      0.4509989014E+00
          0                 4           2             4    7     1      -0.1642275342E-02       5    8    1        -0.8669826929E-01      0.2114228069E+00
          0                 5           2             4    7     1      -0.8371589204E-03       4    7    1        -0.4370691015E-01      0.1069123706E+00
          0                 6           2             4    7     1      -0.4169864714E-03       5    8    1        -0.2177773065E-01      0.5333603049E-01
          0                 7           2             4    7     1      -0.2086479683E-03       4    7    1        -0.1089268324E-01      0.2667946060E-01
          0                 8           1             4    7     1      -0.1043039448E-03       4    7    1        -0.5445281573E-02      0.1333800109E-01
          0                 9           1             4    7     1      -0.5216310930E-04       4    7    1        -0.2723223651E-02      0.6670341614E-02

    ------------------------------------------------
       NWT REQUIRED            9 OUTER ITERATIONS 
       AND A TOTAL OF         16 INNER ITERATIONS.
    ------------------------------------------------

 NO OUTPUT CONTROL FOR STRESS PERIOD   33   TIME STEP   15
 
 SOLVING FOR HEAD 
                                                   Max.-Head-Change                         Max.-Flux-Residual
  Residual-Control   Outer-Iter.   Inner-Iter.     Column Row Layer    Maximum-Head-Change  Column Row Layer    Maximum-Flux-Residual          L2-NORM 
          0                 1           2             4    7     1      -0.3904617641E-01       4    7    1        -0.2056132984E+01      0.4890968096E+01
          0                 2           2             4   13     1      -0.8130920971E-02       4   13    1        -0.4778728063E+00      0.1119714068E+01
          0                 3           2             4    7     1      -0.3677030886E-02       4    7    1        -0.1921547077E+00      0.4603668108E+00
          0                 4           2             4    7     1      -0.1686404495E-02       5    8    1        -0.8898414022E-01      0.2170394862E+00
          0                 5           2             4    7     1      -0.8584133213E-03       4    7    1        -0.4481640654E-01      0.1096326630E+00
          0                 6           2             4    7     1      -0.4276946893E-03       5    8    1        -0.2233652724E-01      0.5470500777E-01
          0                 7           2             4    7     1      -0.2139802750E-03       4    7    1        -0.1117104435E-01      0.2736131426E-01
          0                 8           1             4    7     1      -0.1069859792E-03       4    7    1        -0.5585291467E-02      0.1368094375E-01
          0                 9           1             4    7     1      -0.5349340429E-04       4    7    1        -0.2792668814E-02      0.6840443642E-02

    ------------------------------------------------
       NWT REQUIRED            9 OUTER ITERATIONS 
       AND A TOTAL OF         16 INNER ITERATIONS.
    ------------------------------------------------

 NO OUTPUT CONTROL FOR STRESS PERIOD   33   TIME STEP   16
 
 SOLVING FOR HEAD 
                                                   Max.-Head-Change                         Max.-Flux-Residual
  Residual-Control   Outer-Iter.   Inner-Iter.     Column Row Layer    Maximum-Head-Change  Column Row Layer    Maximum-Flux-Residual          L2-NORM 
          0                 1           2             4    7     1      -0.3804243802E-01       4    7    1        -0.2003273578E+01      0.4818212270E+01
          0                 2           2             4   13     1      -0.8131715655E-02       4   13    1        -0.4779193231E+00      0.1142873074E+01
          0                 3           2             4    7     1      -0.3749068981E-02       4    7    1        -0.1959107980E+00      0.4697416401E+00
          0                 4           2             4    7     1      -0.1730498895E-02       5    8    1        -0.9126868422E-01      0.2226523954E+00
          0                 5           2             4    7     1      -0.8796621202E-03       4    7    1        -0.4592560903E-01      0.1123521697E+00
          0                 6           2             4    7     1      -0.4383852288E-03       5    8    1        -0.2289440458E-01      0.5607172801E-01
          0                 7           2             4    7     1      -0.2193326306E-03       4    7    1        -0.1145045154E-01      0.2804573019E-01
          0                 8           1             4    7     1      -0.1096568823E-03       4    7    1        -0.5724719922E-02      0.1402246162E-01
          0                 9           1             4    7     1      -0.5481568248E-04       4    7    1        -0.2861695279E-02      0.7009521707E-02

    ------------------------------------------------
       NWT REQUIRED            9 OUTER ITERATIONS 
       AND A TOTAL OF         16 INNER ITERATIONS.
    ------------------------------------------------

 NO OUTPUT CONTROL FOR STRESS PERIOD   33   TIME STEP   17
 
 SOLVING FOR HEAD 
                                                   Max.-Head-Change                         Max.-Flux-Residual
  Residual-Control   Outer-Iter.   Inner-Iter.     Column Row Layer    Maximum-Head-Change  Column Row Layer    Maximum-Flux-Residual          L2-NORM 
          0                 1           2             4    7     1      -0.3723729747E-01       4    7    1        -0.1960793014E+01      0.4764217017E+01
          0                 2           2             4   13     1      -0.8132444341E-02       4   13    1        -0.4779620070E+00      0.1157192700E+01
          0                 3           2             4    7     1      -0.3785829229E-02       4    7    1        -0.1978252765E+00      0.4746403648E+00
          0                 4           2             4    7     1      -0.1755012734E-02       5    8    1        -0.9253149951E-01      0.2257622001E+00
          0                 5           2             4    7     1      -0.8914244075E-03       4    7    1        -0.4653956015E-01      0.1138585313E+00
          0                 6           2             4    7     1      -0.4443158361E-03       5    8    1        -0.2320380117E-01      0.5682977700E-01
          0                 7           2             4    7     1      -0.2222929879E-03       4    7    1        -0.1160498218E-01      0.2842426764E-01
          0                 8           2             4    7     1      -0.1111329870E-03       4    7    1        -0.5801772888E-02      0.1421119557E-01
          0                 9           1             4    7     1      -0.5557241195E-04       4    7    1        -0.2901196691E-02      0.7106275560E-02

    ------------------------------------------------
       NWT REQUIRED            9 OUTER ITERATIONS 
       AND A TOTAL OF         17 INNER ITERATIONS.
    ------------------------------------------------

 NO OUTPUT CONTROL FOR STRESS PERIOD   33   TIME STEP   18
 
 SOLVING FOR HEAD 
                                                   Max.-Head-Change                         Max.-Flux-Residual
  Residual-Control   Outer-Iter.   Inner-Iter.     Column Row Layer    Maximum-Head-Change  Column Row Layer    Maximum-Flux-Residual          L2-NORM 
          0                 1           2             4    7     1      -0.3666414633E-01       4    7    1        -0.1930435117E+01      0.4731393253E+01
          0                 2           2             4   13     1      -0.8133148210E-02       4   13    1        -0.4780032409E+00      0.1160665955E+01
          0                 3           2             4    7     1      -0.3780575824E-02       4    7    1        -0.1975465106E+00      0.4742059933E+00
          0                 4           2             4    7     1      -0.1755833387E-02       5    8    1        -0.9255790853E-01      0.2258430710E+00
          0                 5           2             4    7     1      -0.8914717319E-03       4    7    1        -0.4654192437E-01      0.1138667881E+00
          0                 6           2             4    7     1      -0.4443757980E-03       5    8    1        -0.2320673554E-01      0.5683712712E-01
          0                 7           2             4    7     1      -0.2223330397E-03       4    7    1        -0.1160705623E-01      0.2842937633E-01
          0                 8           2             4    7     1      -0.1111383055E-03       4    7    1        -0.5802042315E-02      0.1421186056E-01
          0                 9           1             4    7     1      -0.5559024199E-04       4    7    1        -0.2902123394E-02      0.7108560706E-02

    ------------------------------------------------
       NWT REQUIRED            9 OUTER ITERATIONS 
       AND A TOTAL OF         17 INNER ITERATIONS.
    ------------------------------------------------

 NO OUTPUT CONTROL FOR STRESS PERIOD   33   TIME STEP   19
 
 SOLVING FOR HEAD 
                                                   Max.-Head-Change                         Max.-Flux-Residual
  Residual-Control   Outer-Iter.   Inner-Iter.     Column Row Layer    Maximum-Head-Change  Column Row Layer    Maximum-Flux-Residual          L2-NORM 
          0                 1           2             4    7     1      -0.3610176102E-01       4    7    1        -0.1900649847E+01      0.4699387302E+01
          0                 2           2             4   13     1      -0.8133704594E-02       4   13    1        -0.4780359000E+00      0.1164090014E+01
          0                 3           2             4    7     1      -0.3775416318E-02       4    7    1        -0.1972727508E+00      0.4737852165E+00
          0                 4           2             4    7     1      -0.1756635482E-02       5    8    1        -0.9258377169E-01      0.2259222690E+00
          0                 5           2             4    7     1      -0.8915391616E-03       4    7    1        -0.4654533991E-01      0.1138775620E+00
          0                 6           2             4    7     1      -0.4444428749E-03       5    8    1        -0.2321004590E-01      0.5684539358E-01
          0                 7           2             4    7     1      -0.2223632418E-03       4    7    1        -0.1160861626E-01      0.2843321780E-01
          0                 8           2             4    7     1      -0.1111537400E-03       4    7    1        -0.5802839984E-02      0.1421380412E-01
          0                 9           1             4    7     1      -0.5558879222E-04       4    7    1        -0.2902043641E-02      0.7108350623E-02

    ------------------------------------------------
       NWT REQUIRED            9 OUTER ITERATIONS 
       AND A TOTAL OF         17 INNER ITERATIONS.
    ------------------------------------------------

 NO OUTPUT CONTROL FOR STRESS PERIOD   33   TIME STEP   20
 
 SOLVING FOR HEAD 
                                                   Max.-Head-Change                         Max.-Flux-Residual
  Residual-Control   Outer-Iter.   Inner-Iter.     Column Row Layer    Maximum-Head-Change  Column Row Layer    Maximum-Flux-Residual          L2-NORM 
          0                 1           2             4    7     1      -0.3555014561E-01       4    7    1        -0.1871437823E+01      0.4668166540E+01
          0                 2           2             4   13     1      -0.8134430074E-02       4   13    1        -0.4780786046E+00      0.1167475287E+01
          0                 3           2             4    7     1      -0.3770373584E-02       4    7    1        -0.1970051957E+00      0.4733663126E+00
          0                 4           2             4    7     1      -0.1757425863E-02       5    8    1        -0.9260945158E-01      0.2260004229E+00
          0                 5           2             4    7     1      -0.8916077450E-03       4    7    1        -0.4654881740E-01      0.1138884263E+00
          0                 6           2             4    7     1      -0.4445189612E-03       5    8    1        -0.2321383125E-01      0.5685481894E-01
          0                 7           2             4    7     1      -0.2223834048E-03       4    7    1        -0.1160965239E-01      0.2843577919E-01
          0                 8           2             4    7     1      -0.1111884440E-03       4    7    1        -0.5804643719E-02      0.1421821999E-01
          0                 9           1             4    7     1      -0.5557628067E-04       4    7    1        -0.2901386429E-02      0.7106741027E-02

    ------------------------------------------------
       NWT REQUIRED            9 OUTER ITERATIONS 
       AND A TOTAL OF         17 INNER ITERATIONS.
    ------------------------------------------------

 NO OUTPUT CONTROL FOR STRESS PERIOD   33   TIME STEP   21
 
 SOLVING FOR HEAD 
                                                   Max.-Head-Change                         Max.-Flux-Residual
  Residual-Control   Outer-Iter.   Inner-Iter.     Column Row Layer    Maximum-Head-Change  Column Row Layer    Maximum-Flux-Residual          L2-NORM 
          0                 1           2             4    7     1      -0.3500864757E-01       4    7    1        -0.1842763788E+01      0.4637716637E+01
          0                 2           2             4   13     1      -0.8135050589E-02       4   13    1        -0.4781151451E+00      0.1170813834E+01
          0                 3           2             4    7     1      -0.3765421922E-02       4    7    1        -0.1967424913E+00      0.4729536173E+00
          0                 4           2             4    7     1      -0.1758225373E-02       5    8    1        -0.9263599829E-01      0.2260802662E+00
          0                 5           2             4    7     1      -0.8916753997E-03       4    7    1        -0.4655224795E-01      0.1138991213E+00
          0                 6           2             4    7     1      -0.4445768645E-03       5    8    1        -0.2321667160E-01      0.5686192519E-01
          0                 7           2             4    7     1      -0.2224236495E-03       4    7    1        -0.1161173709E-01      0.2844090852E-01
          0                 8           2             4    7     1      -0.1111937364E-03       4    7    1        -0.5804912080E-02      0.1421887500E-01
          0                 9           1             4    7     1      -0.5561237844E-04       4    7    1        -0.2903266937E-02      0.7111353358E-02

    ------------------------------------------------
       NWT REQUIRED            9 OUTER ITERATIONS 
       AND A TOTAL OF         17 INNER ITERATIONS.
    ------------------------------------------------

 NO OUTPUT CONTROL FOR STRESS PERIOD   33   TIME STEP   22
 
 SOLVING FOR HEAD 
                                                   Max.-Head-Change                         Max.-Flux-Residual
  Residual-Control   Outer-Iter.   Inner-Iter.     Column Row Layer    Maximum-Head-Change  Column Row Layer    Maximum-Flux-Residual          L2-NORM 
          0                 1           2             4    7     1      -0.3447739501E-01       4    7    1        -0.1814635226E+01      0.4608008262E+01
          0                 2           2             4   13     1      -0.8135604628E-02       4   13    1        -0.4781478135E+00      0.1174108225E+01
          0                 3           2             4    7     1      -0.3760580877E-02       4    7    1        -0.1964856664E+00      0.4725496623E+00
          0                 4           2             4    7     1      -0.1758995520E-02       5    8    1        -0.9266140838E-01      0.2261569363E+00
          0                 5           2             4    7     1      -0.8917459737E-03       4    7    1        -0.4655583260E-01      0.1139101367E+00
          0                 6           2             4    7     1      -0.4446436015E-03       5    8    1        -0.2321997743E-01      0.5687016751E-01
          0                 7           2             4    7     1      -0.2224538730E-03       4    7    1        -0.1161329882E-01      0.2844475624E-01
          0                 8           2             4    7     1      -0.1112182966E-03       4    7    1        -0.5806186430E-02      0.1422199425E-01
          0                 9           1             4    7     1      -0.5560087884E-04       4    7    1        -0.2902662665E-02      0.7109867588E-02

    ------------------------------------------------
       NWT REQUIRED            9 OUTER ITERATIONS 
       AND A TOTAL OF         17 INNER ITERATIONS.
    ------------------------------------------------

 NO OUTPUT CONTROL FOR STRESS PERIOD   33   TIME STEP   23
 
 SOLVING FOR HEAD 
                                                   Max.-Head-Change                         Max.-Flux-Residual
  Residual-Control   Outer-Iter.   Inner-Iter.     Column Row Layer    Maximum-Head-Change  Column Row Layer    Maximum-Flux-Residual          L2-NORM 
          0                 1           2             4    7     1      -0.3395600782E-01       4    7    1        -0.1787031572E+01      0.4579029520E+01
          0                 2           2             4   13     1      -0.8136149737E-02       4   13    1        -0.4781800099E+00      0.1177358199E+01
          0                 3           2             4    7     1      -0.3755848479E-02       4    7    1        -0.1962346111E+00      0.4721543954E+00
          0                 4           2             4    7     1      -0.1759773038E-02       5    8    1        -0.9268756977E-01      0.2262350405E+00
          0                 5           2             4    7     1      -0.8918157944E-03       4    7    1        -0.4655937948E-01      0.1139210056E+00
          0                 6           2             4    7     1      -0.4447104053E-03       5    8    1        -0.2322329078E-01      0.5687842441E-01
          0                 7           2             4    7     1      -0.2224749523E-03       4    7    1        -0.1161438334E-01      0.2844743449E-01
          0                 8           2             4    7     1      -0.1112255010E-03       4    7    1        -0.5806554801E-02      0.1422289438E-01
          0                 9           1             4    7     1      -0.5561851604E-04       4    7    1        -0.2903579523E-02      0.7112113543E-02

    ------------------------------------------------
       NWT REQUIRED            9 OUTER ITERATIONS 
       AND A TOTAL OF         17 INNER ITERATIONS.
    ------------------------------------------------

 NO OUTPUT CONTROL FOR STRESS PERIOD   33   TIME STEP   24
 
 SOLVING FOR HEAD 
                                                   Max.-Head-Change                         Max.-Flux-Residual
  Residual-Control   Outer-Iter.   Inner-Iter.     Column Row Layer    Maximum-Head-Change  Column Row Layer    Maximum-Flux-Residual          L2-NORM 
          0                 1           2             4    7     1      -0.3344434205E-01       4    7    1        -0.1759945284E+01      0.4550759343E+01
          0                 2           2             4   13     1      -0.8136653296E-02       4   13    1        -0.4782097965E+00      0.1180565322E+01
          0                 3           2             4    7     1      -0.3751212327E-02       4    7    1        -0.1959886774E+00      0.4717664570E+00
          0                 4           2             4    7     1      -0.1760550032E-02       5    8    1        -0.9271407181E-01      0.2263135974E+00
          0                 5           2             4    7     1      -0.8918856518E-03       4    7    1        -0.4656292982E-01      0.1139318299E+00
          0                 6           2             4    7     1      -0.4447771976E-03       5    8    1        -0.2322660753E-01      0.5688668578E-01
          0                 7           2             4    7     1      -0.2225142960E-03       4    7    1        -0.1161642156E-01      0.2845244829E-01
          0                 8           2             4    7     1      -0.1112400114E-03       4    7    1        -0.5807304648E-02      0.1422472895E-01
          0                 9           1             4    7     1      -0.5562628687E-04       4    7    1        -0.2903981358E-02      0.7113098067E-02

    ------------------------------------------------
       NWT REQUIRED            9 OUTER ITERATIONS 
       AND A TOTAL OF         17 INNER ITERATIONS.
    ------------------------------------------------

 NO OUTPUT CONTROL FOR STRESS PERIOD   33   TIME STEP   25
 
 SOLVING FOR HEAD 
                                                   Max.-Head-Change                         Max.-Flux-Residual
  Residual-Control   Outer-Iter.   Inner-Iter.     Column Row Layer    Maximum-Head-Change  Column Row Layer    Maximum-Flux-Residual          L2-NORM 
          0                 1           2             4    7     1      -0.3294188839E-01       4    7    1        -0.1733348951E+01      0.4523169584E+01
          0                 2           2             4   13     1      -0.8137175364E-02       4   13    1        -0.4782407444E+00      0.1183732313E+01
          0                 3           2             4    7     1      -0.3746656370E-02       4    7    1        -0.1957470192E+00      0.4713841138E+00
          0                 4           2             4    7     1      -0.1761291576E-02       5    8    1        -0.9273905552E-01      0.2263881131E+00
          0                 5           2             4    7     1      -0.8919773062E-03       4    7    1        -0.4656761955E-01      0.1139453973E+00
          0                 6           2             4    7     1      -0.4448509371E-03       5    8    1        -0.2323029053E-01      0.5689584090E-01
          0                 7           2             4    7     1      -0.2225438075E-03       4    7    1        -0.1161794664E-01      0.2845620476E-01
          0                 8           2             4    7     1      -0.1112463686E-03       4    7    1        -0.5807628965E-02      0.1422552128E-01
          0                 9           1             4    7     1      -0.5563487293E-04       4    7    1        -0.2904425776E-02      0.7114187118E-02

    ------------------------------------------------
       NWT REQUIRED            9 OUTER ITERATIONS 
       AND A TOTAL OF         17 INNER ITERATIONS.
    ------------------------------------------------

 NO OUTPUT CONTROL FOR STRESS PERIOD   33   TIME STEP   26
 
 SOLVING FOR HEAD 
                                                   Max.-Head-Change                         Max.-Flux-Residual
  Residual-Control   Outer-Iter.   Inner-Iter.     Column Row Layer    Maximum-Head-Change  Column Row Layer    Maximum-Flux-Residual          L2-NORM 
          0                 1           2             4    7     1      -0.3244871157E-01       4    7    1        -0.1707246260E+01      0.4496250470E+01
          0                 2           2             4   13     1      -0.8137647343E-02       4   13    1        -0.4782687963E+00      0.1186855096E+01
          0                 3           2             4    7     1      -0.3742212311E-02       4    7    1        -0.1955112951E+00      0.4710111119E+00
          0                 4           2             4    7     1      -0.1762031033E-02       5    8    1        -0.9276427291E-01      0.2264628286E+00
          0                 5           2             4    7     1      -0.8920508869E-03       4    7    1        -0.4657136724E-01      0.1139566061E+00
          0                 6           2             4    7     1      -0.4449082081E-03       5    8    1        -0.2323311763E-01      0.5690289582E-01
          0                 7           2             4    7     1      -0.2225749616E-03       4    7    1        -0.1161955768E-01      0.2846017118E-01
          0                 8           2             4    7     1      -0.1112799623E-03       4    7    1        -0.5809375225E-02      0.1422979660E-01
          0                 9           1             4    7     1      -0.5563159948E-04       4    7    1        -0.2904251133E-02      0.7113759248E-02

    ------------------------------------------------
       NWT REQUIRED            9 OUTER ITERATIONS 
       AND A TOTAL OF         17 INNER ITERATIONS.
    ------------------------------------------------

 NO OUTPUT CONTROL FOR STRESS PERIOD   33   TIME STEP   27
 
 SOLVING FOR HEAD 
                                                   Max.-Head-Change                         Max.-Flux-Residual
  Residual-Control   Outer-Iter.   Inner-Iter.     Column Row Layer    Maximum-Head-Change  Column Row Layer    Maximum-Flux-Residual          L2-NORM 
          0                 1           2             4    7     1      -0.3196453718E-01       4    7    1        -0.1681622666E+01      0.4469977381E+01
          0                 2           2             4   13     1      -0.8138085178E-02       4   13    1        -0.4782948427E+00      0.1189936410E+01
          0                 3           2             4    7     1      -0.3737858225E-02       4    7    1        -0.1952803581E+00      0.4706448877E+00
          0                 4           2             4    7     1      -0.1762779730E-02       5    8    1        -0.9279030287E-01      0.2265391760E+00
          0                 5           2             4    7     1      -0.8921235284E-03       4    7    1        -0.4657506733E-01      0.1139676495E+00
          0                 6           2             4    7     1      -0.4449838332E-03       5    8    1        -0.2323690648E-01      0.5691230326E-01
          0                 7           2             4    7     1      -0.2226042770E-03       4    7    1        -0.1162107288E-01      0.2846390237E-01
          0                 8           2             4    7     1      -0.1112863355E-03       4    7    1        -0.5809700544E-02      0.1423059149E-01
          0                 9           1             4    7     1      -0.5564931609E-04       4    7    1        -0.2905172297E-02      0.7116015797E-02

    ------------------------------------------------
       NWT REQUIRED            9 OUTER ITERATIONS 
       AND A TOTAL OF         17 INNER ITERATIONS.
    ------------------------------------------------

 NO OUTPUT CONTROL FOR STRESS PERIOD   33   TIME STEP   28
 
 SOLVING FOR HEAD 
                                                   Max.-Head-Change                         Max.-Flux-Residual
  Residual-Control   Outer-Iter.   Inner-Iter.     Column Row Layer    Maximum-Head-Change  Column Row Layer    Maximum-Flux-Residual          L2-NORM 
          0                 1           2             4    7     1      -0.3148913278E-01       4    7    1        -0.1656465838E+01      0.4444335065E+01
          0                 2           2             4   13     1      -0.8138522660E-02       4   13    1        -0.4783209420E+00      0.1192978681E+01
          0                 3           2             4    7     1      -0.3733589049E-02       4    7    1        -0.1950539419E+00      0.4702850454E+00
          0                 4           2             4    7     1      -0.1763519908E-02       5    8    1        -0.9281619871E-01      0.2266149267E+00
          0                 5           2             4    7     1      -0.8922061408E-03       4    7    1        -0.4657928938E-01      0.1139799258E+00
          0                 6           2             4    7     1      -0.4450493204E-03       5    8    1        -0.2324016949E-01      0.5692041953E-01
          0                 7           2             4    7     1      -0.2226346022E-03       4    7    1        -0.1162264096E-01      0.2846776269E-01
          0                 8           2             4    7     1      -0.1113108742E-03       4    7    1        -0.5810974238E-02      0.1423370941E-01
          0                 9           1             4    7     1      -0.5565608022E-04       4    7    1        -0.2905521734E-02      0.7116871945E-02

    ------------------------------------------------
       NWT REQUIRED            9 OUTER ITERATIONS 
       AND A TOTAL OF         17 INNER ITERATIONS.
    ------------------------------------------------

 NO OUTPUT CONTROL FOR STRESS PERIOD   33   TIME STEP   29
 
 SOLVING FOR HEAD 
                                                   Max.-Head-Change                         Max.-Flux-Residual
  Residual-Control   Outer-Iter.   Inner-Iter.     Column Row Layer    Maximum-Head-Change  Column Row Layer    Maximum-Flux-Residual          L2-NORM 
          0                 1           2             4    7     1      -0.3102231144E-01       4    7    1        -0.1631765627E+01      0.4419301950E+01
          0                 2           2             4   13     1      -0.8138953517E-02       4   13    1        -0.4783466751E+00      0.1195979280E+01
          0                 3           2             4    7     1      -0.3729425750E-02       4    7    1        -0.1948331375E+00      0.4699347721E+00
          0                 4           2             4    7     1      -0.1764231201E-02       5    8    1        -0.9284088684E-01      0.2266874257E+00
          0                 5           2             4    7     1      -0.8922824936E-03       4    7    1        -0.4658318604E-01      0.1139913588E+00
          0                 6           2             4    7     1      -0.4451336942E-03       5    8    1        -0.2324442178E-01      0.5693095608E-01
          0                 7           2             4    7     1      -0.2226630353E-03       4    7    1        -0.1162411044E-01      0.2847138096E-01
          0                 8           2             4    7     1      -0.1113173325E-03       4    7    1        -0.5811304135E-02      0.1423451581E-01
          0                 9           1             4    7     1      -0.5566465203E-04       4    7    1        -0.2905965577E-02      0.7117959886E-02

    ------------------------------------------------
       NWT REQUIRED            9 OUTER ITERATIONS 
       AND A TOTAL OF         17 INNER ITERATIONS.
    ------------------------------------------------

 NO OUTPUT CONTROL FOR STRESS PERIOD   33   TIME STEP   30



 STREAM LISTING     PERIOD     33   STEP       30

 LAYER ROW COL. STREAM  RCH.  FLOW INTO     FLOW TO   FLOW OUT OF   OVRLND.     DIRECT     STREAM       STREAM     STREAM     STREAM   STREAMBED  STREAMBED
                SEG.NO.  NO.  STRM. RCH.    AQUIFER    STRM. RCH.    RUNOFF     PRECIP       ET          HEAD       DEPTH      WIDTH   CONDCTNC.   GRADIENT

   1    1    1     1     1    2.2874E+01  2.3513E-01   2.2639E+01  0.000E+00  0.000E+00  0.000E+00  1.09419E+03  1.146E+00  1.260E+01  5.672E-02  1.382E+00
   1    2    2     1     2    2.2639E+01  3.6351E-01   2.2276E+01  0.000E+00  0.000E+00  0.000E+00  1.08920E+03  1.141E+00  1.254E+01  8.778E-02  1.380E+00
   1    3    3     1     3    2.2276E+01  3.0939E-01   2.1966E+01  0.000E+00  0.000E+00  0.000E+00  1.08355E+03  1.136E+00  1.247E+01  7.481E-02  1.379E+00
   1    3    4     1     4    2.1966E+01  2.8439E-01   2.1682E+01  0.000E+00  0.000E+00  0.000E+00  1.07854E+03  1.131E+00  1.240E+01  6.885E-02  1.377E+00
   1    4    5     2     1    1.9682E+01  3.1521E-01   1.9367E+01  0.000E+00  0.000E+00  0.000E+00  1.07298E+03  1.041E+00  1.200E+01  7.800E-02  1.347E+00
   1    5    6     2     2    1.9367E+01  2.4193E-01   1.9125E+01  0.000E+00  0.000E+00  0.000E+00  1.06754E+03  1.032E+00  1.200E+01  6.000E-02  1.344E+00
   1    6    6     2     3    1.9125E+01  2.4146E-01   1.8883E+01  0.000E+00  0.000E+00  0.000E+00  1.06282E+03  1.024E+00  1.200E+01  6.000E-02  1.341E+00
   1    7    6     2     4    1.8883E+01  2.4099E-01   1.8642E+01  0.000E+00  0.000E+00  0.000E+00  1.05809E+03  1.017E+00  1.200E+01  6.000E-02  1.339E+00
   1    8    6     2     5    1.8642E+01  2.4052E-01   1.8402E+01  0.000E+00  0.000E+00  0.000E+00  1.05337E+03  1.009E+00  1.200E+01  6.000E-02  1.336E+00
   1    3    5     3     1    2.0000E+00  2.8252E-01   1.7175E+00  0.000E+00  0.000E+00  0.000E+00  1.07555E+03  1.909E+00  9.636E+00  7.227E-02  1.955E+00
   1    3    6     3     2    1.7175E+00  2.4905E-01   1.4684E+00  0.000E+00  0.000E+00  0.000E+00  1.07264E+03  1.727E+00  8.909E+00  6.682E-02  1.864E+00
   1    3    7     3     3    1.4684E+00  1.9718E-01   1.2712E+00  0.000E+00  0.000E+00  0.000E+00  1.06987E+03  1.555E+00  8.218E+00  5.547E-02  1.777E+00
   1    4    8     3     4    1.2712E+00  2.2567E-01   1.0456E+00  0.000E+00  0.000E+00  0.000E+00  1.06682E+03  1.364E+00  7.455E+00  6.709E-02  1.682E+00
   1    5    8     3     5    1.0456E+00  1.5790E-01   8.8768E-01  0.000E+00  0.000E+00  0.000E+00  1.06362E+03  1.164E+00  6.655E+00  4.991E-02  1.582E+00
   1    6    8     3     6    8.8768E-01  5.5980E-02   8.3170E-01  0.000E+00  0.000E+00  0.000E+00  1.06158E+03  1.036E+00  6.145E+00  1.844E-02  1.518E+00
   1    5   10     4     1    1.0000E+01  9.0919E-02   9.9091E+00  0.000E+00  0.000E+00  0.000E+00  1.07836E+03  6.368E-01  1.000E+01  2.500E-02  1.212E+00
   1    5    9     4     2    9.9091E+00  1.8158E-01   9.7275E+00  0.000E+00  0.000E+00  0.000E+00  1.07154E+03  6.315E-01  1.000E+01  5.000E-02  1.211E+00
   1    6    8     4     3    9.7275E+00  1.2689E-01   9.6006E+00  0.000E+00  0.000E+00  0.000E+00  1.06381E+03  6.256E-01  1.000E+01  3.500E-02  1.209E+00
   1    6    8     5     1    1.0432E+01  2.2686E-01   1.0205E+01  0.000E+00  0.000E+00  0.000E+00  1.05868E+03  6.790E-01  1.542E+01  6.166E-02  1.226E+00
   1    7    7     5     2    1.0205E+01  2.7894E-01   9.9265E+00  0.000E+00  0.000E+00  0.000E+00  1.05417E+03  6.732E-01  1.519E+01  7.594E-02  1.224E+00
   1    8    7     5     3    9.9265E+00  1.9221E-01   9.7343E+00  0.000E+00  0.000E+00  0.000E+00  1.04992E+03  6.676E-01  1.497E+01  5.241E-02  1.223E+00
   1    8    6     5     4    9.7343E+00  1.3577E-01   9.5985E+00  0.000E+00  0.000E+00  0.000E+00  1.04691E+03  6.637E-01  1.482E+01  3.706E-02  1.221E+00
   1    9    6     6     1    9.5985E+00  2.2097E-01   9.3776E+00  0.000E+00  0.000E+00  0.000E+00  1.04341E+03  6.828E-01  1.200E+01  6.000E-02  1.228E+00
   1   10    7     6     2    9.3776E+00  2.2039E-01   9.1572E+00  0.000E+00  0.000E+00  0.000E+00  1.03885E+03  6.732E-01  1.200E+01  6.000E-02  1.224E+00
   1   11    7     6     3    9.1572E+00  2.1981E-01   8.9374E+00  0.000E+00  0.000E+00  0.000E+00  1.03430E+03  6.636E-01  1.200E+01  6.000E-02  1.221E+00
   1   12    7     6     4    8.9374E+00  2.1923E-01   8.7181E+00  0.000E+00  0.000E+00  0.000E+00  1.02974E+03  6.539E-01  1.200E+01  6.000E-02  1.218E+00
   1   13    7     6     5    8.7181E+00 -2.4496E-02   8.7426E+00  0.000E+00  0.000E+00  0.000E+00  1.02656E+03  6.495E-01  1.200E+01  2.400E-01 -3.402E-02
   1   14    9     7     1    1.5000E+02  1.3812E+00   1.4862E+02  0.000E+00  0.000E+00  0.000E+00  1.03987E+03  2.288E+00  5.529E+01  5.593E-01  8.232E-01
   1   13    8     7     2    1.4862E+02  1.9688E+00   1.4665E+02  0.000E+00  0.000E+00  0.000E+00  1.03478E+03  2.279E+00  5.525E+01  6.147E-01  1.068E+00
   1   13    7     7     3    1.4665E+02  1.6905E+00   1.4496E+02  0.000E+00  0.000E+00  0.000E+00  1.02969E+03  2.269E+00  5.521E+01  5.584E-01  1.009E+00
   1   13    6     8     1    1.5370E+02  1.0433E+00   1.5266E+02  0.000E+00  0.000E+00  0.000E+00  1.02471E+03  2.839E+00  4.117E+01  4.195E-01  8.290E-01
   1   13    5     8     2    1.5266E+02  3.0078E-01   1.5236E+02  0.000E+00  0.000E+00  0.000E+00  1.01846E+03  2.834E+00  4.110E+01  4.188E-01  2.394E-01
   1   13    4     8     3    1.5236E+02 -1.9877E+00   1.5435E+02  0.000E+00  0.000E+00  0.000E+00  1.01222E+03  2.840E+00  4.118E+01  4.197E+00 -1.579E-01
   1   13    3     8     4    1.5435E+02 -3.4159E+00   1.5776E+02  0.000E+00  0.000E+00  0.000E+00  1.00598E+03  2.859E+00  4.145E+01  4.224E+00 -2.695E-01
   1   13    2     8     5    1.5776E+02 -2.5230E+00   1.6028E+02  0.000E+00  0.000E+00  0.000E+00  9.99754E+02  2.879E+00  4.175E+01  4.254E+00 -1.977E-01
   1   13    1     8     6    1.6028E+02 -1.9702E+00   1.6225E+02  0.000E+00  0.000E+00  0.000E+00  9.94769E+02  2.894E+00  4.197E+01  2.566E+00 -2.559E-01
   1    8    6     9     1    1.8402E+01  0.0000E+00   1.8402E+01  0.000E+00  0.000E+00  0.000E+00  1.08202E+03  3.267E+00  4.000E+00  0.000E+00  2.089E+00
   1    8    5     9     2    1.8402E+01  0.0000E+00   1.8402E+01  0.000E+00  0.000E+00  0.000E+00  1.08152E+03  3.267E+00  4.000E+00  0.000E+00  2.089E+00





UNSATURATED ZONE PACKAGE VOLUMETRIC BUDGET FOR  TIME STEP    30 STRESS PERIOD   33
  ------------------------------------------------------------------------------



     CUMULATIVE VOLUMES      L**3       RATES FOR THIS TIME STEP      L**3/T
     ------------------                 ------------------------

           IN:                                      IN:
           ---                                      ---
        INFILTRATION =  1531924960.1970          INFILTRATION =          52.9616

          OUT:                                     OUT:
          ----                                     ----
              UZF ET =  1436647639.6075                UZF ET =          52.8470
        UZF RECHARGE =      717884.2805          UZF RECHARGE =       0.0000E+00

            IN - OUT =    94559436.3089              IN - OUT =           0.1145

          STORAGE:                                 STORAGE:
          --------                                 --------
      STORAGE CHANGE =    94559415.1784        STORAGE CHANGE =           0.1145

 PERCENT DISCREPANCY IS DIFFERENCE BETWEEN IN-OUT MINUS CHANGE IN STORAGE
 DIVIDED BY THE AVERAGE OF IN AND OUT TIMES 100

 PERCENT DISCREPANCY =           0.00     PERCENT DISCREPANCY =           0.00






1
  VOLUMETRIC BUDGET FOR AGRICULTURAL FIELDS AT  END OF TIME STEP   30, STRESS PERIOD  33
  ------------------------------------------------------------------------------

     CUMULATIVE VOLUMES      L**3       RATES FOR THIS TIME STEP      L**3/T
     ------------------                 ------------------------

           IN:                                      IN:
           ---                                      ---
               AG WELLS  =   593838720.0000                 AG WELLS  =          30.1519
      DIVERSION SEGMENTS =   567067328.0000        DIVERSION SEGMENTS =          18.4018
           GW IRRIGATION =           0.0000             GW IRRIGATION =           0.0000
           SW IRRIGATION =           0.0000             SW IRRIGATION =           0.0000
        SYSTEM LOSSES GW =           0.0000          SYSTEM LOSSES GW =           0.0000
        SYSTEM LOSSES SW =           0.0000          SYSTEM LOSSES SW =           0.0000

                TOTAL IN =  1160905984.0000                  TOTAL IN =          48.5537

          OUT:                                     OUT:
          ----                                     ----
               AG WELLS  =           0.0000                 AG WELLS  =           0.0000
      DIVERSION SEGMENTS =           0.0000        DIVERSION SEGMENTS =           0.0000
           GW IRRIGATION =   593838720.0000             GW IRRIGATION =          30.1519
           SW IRRIGATION =   567077952.0000             SW IRRIGATION =          18.4022
        SYSTEM LOSSES GW =           0.0000          SYSTEM LOSSES GW =           0.0000
        SYSTEM LOSSES SW =           0.0000          SYSTEM LOSSES SW =           0.0000

               TOTAL OUT =  1160916736.0000                 TOTAL OUT =          48.5541

                IN - OUT =      -10752.0000                  IN - OUT =      -3.7003E-04

     PERCENT DISCREPANCY =          -0.00         PERCENT DISCREPANCY =          -0.00



1
  VOLUMETRIC BUDGET FOR ENTIRE MODEL AT END OF TIME STEP   30, STRESS PERIOD  33
  ------------------------------------------------------------------------------

     CUMULATIVE VOLUMES      L**3       RATES FOR THIS TIME STEP      L**3/T
     ------------------                 ------------------------

           IN:                                      IN:
           ---                                      ---
             STORAGE     =   804559040.0000               STORAGE     =          28.1417
       CONSTANT HEAD     =           0.0000         CONSTANT HEAD     =           0.0000
     HEAD DEP BOUNDS     =    24280908.0000       HEAD DEP BOUNDS     =           0.2888
      STREAM LEAKAGE     =   994307264.0000        STREAM LEAKAGE     =          12.1390
        UZF RECHARGE     =      717884.3750          UZF RECHARGE     =           0.0000
               GW ET     =           0.0000                 GW ET     =           0.0000
     SURFACE LEAKAGE     =           0.0000       SURFACE LEAKAGE     =           0.0000
           AG WELLS      =           0.0000             AG WELLS      =           0.0000

                TOTAL IN =  1823865088.0000                  TOTAL IN =          40.5695

          OUT:                                     OUT:
          ----                                     ----
             STORAGE     =   349427552.0000               STORAGE     =           0.2081
       CONSTANT HEAD     =           0.0000         CONSTANT HEAD     =           0.0000
     HEAD DEP BOUNDS     =    24255938.0000       HEAD DEP BOUNDS     =           0.2864
      STREAM LEAKAGE     =   856297280.0000        STREAM LEAKAGE     =           9.9213
        UZF RECHARGE     =           0.0000          UZF RECHARGE     =           0.0000
               GW ET     =           0.0000                 GW ET     =           0.0000
     SURFACE LEAKAGE     =           0.0000       SURFACE LEAKAGE     =           0.0000
           AG WELLS      =   593838720.0000             AG WELLS      =          30.1519

               TOTAL OUT =  1823819520.0000                 TOTAL OUT =          40.5678

                IN - OUT =       45568.0000                  IN - OUT =       1.7319E-03

     PERCENT DISCREPANCY =           0.00         PERCENT DISCREPANCY =           0.00






         TIME SUMMARY AT END OF TIME STEP   30 IN STRESS PERIOD   33
                    SECONDS     MINUTES      HOURS       DAYS        YEARS
                    -----------------------------------------------------------
   TIME STEP LENGTH  87667.      1461.1      24.352      1.0147     2.77799E-03
 STRESS PERIOD TIME 2.63000E+06  43833.      730.56      30.440     8.33397E-02
         TOTAL TIME 8.42463E+07 1.40410E+06  23402.      975.07      2.6696    
1
1
                            STRESS PERIOD NO.   34, LENGTH =   2630000.    
                            -----------------------------------------------

                              NUMBER OF TIME STEPS =    30

                               MULTIPLIER FOR DELT =     1.000

                            INITIAL TIME STEP SIZE =   87666.66    

 REUSING NON-PARAMETER GHB CELLS FROM LAST STRESS PERIOD

      2 GHB CELLS

 REUSING STREAM SEGMENT DATA FROM LAST STRESS PERIOD



            AREAL INFILTRATION RATE
 READING ON UNIT   19 WITH FORMAT: (10F4.0)            

            1           2           3           4           5           6           7           8           9          10
 ........................................................................................................................
   1   1.2000E-09   0.000       0.000       0.000       0.000       0.000       0.000       0.000       0.000       0.000    
   2   2.1000E-09  2.0000E-09  8.0000E-10  8.5000E-09   0.000       0.000       0.000       0.000       0.000       0.000    
   3   5.0000E-10  1.1000E-09  8.8000E-09  5.5000E-09   0.000       0.000       0.000       0.000       0.000       0.000    
   4   8.5000E-09  1.1000E-09  1.1000E-09  1.1000E-09  2.0000E-09   0.000       0.000       0.000       0.000       0.000    
   5   8.5000E-09  1.1000E-09  1.1000E-09  1.1000E-09  1.1000E-09   0.000       0.000       0.000       0.000       0.000    
   6   8.5000E-09  5.2000E-09  2.1000E-09  1.1000E-09  1.5000E-09   0.000       0.000       0.000       0.000       0.000    
   7   8.5000E-09  5.2000E-09  2.1000E-09  1.2000E-09  2.0000E-09   0.000       0.000       0.000       0.000       0.000    
   8   5.0000E-10  5.2000E-09  2.1000E-09  1.2000E-09  5.0000E-09   0.000       0.000       0.000       0.000       0.000    
   9   5.0000E-10  5.2000E-09  2.1000E-09  1.2000E-09  5.0000E-09   0.000       0.000       0.000       0.000       0.000    
  10   5.0000E-10  5.2000E-09  2.1000E-09  1.2000E-09  5.8000E-09   0.000       0.000       0.000       0.000       0.000    
  11   1.0000E-10  1.1000E-09  1.1000E-09  1.2000E-09  5.0000E-09   0.000       0.000       0.000       0.000       0.000    
  12   1.1000E-09  1.1000E-09  1.1000E-09  1.1000E-09  2.0000E-09   0.000       0.000       0.000       0.000       0.000    
  13   1.1000E-09  2.2000E-09  2.2000E-09  2.1000E-09  1.0000E-09   0.000       0.000       0.000       0.000       0.000    
  14   2.0000E-10  5.5000E-09  5.5000E-09  5.2000E-09  1.0000E-09   0.000       0.000       0.000       0.000       0.000    
  15    0.000      8.8000E-09  8.8000E-09   0.000       0.000       0.000       0.000       0.000       0.000       0.000    

                  ET RATE =  7.500000E-08

 USING ET EXTINCTION DEPTH FROM PREVIOUS STRESS PERIOD. CURRENT PERIOD IS:      34

 USING EXTINCTION WATER CONTENT FROM PREVIOUS STRESS PERIOD. CURRENT PERIOD IS:      34

 USING AIR ENTRY PRESSURE FROM PREVIOUS STRESS PERIOD. CURRENT PERIOD IS:      34

 USING ROOT PRESSURE HEAD FROM PREVIOUS STRESS PERIOD. CURRENT PERIOD IS:      34

 USING ROOT ACTIVITY FROM PREVIOUS STRESS PERIOD. CURRENT PERIOD IS:      34

 PROCESSING AG STRESS PERIOD DATA

 READING AG STRESS PERIOD DATA

 READING IRRIGATION SEGMENT

 READING IRRIGATION WELL

 READING SUPPLEMENTAL WELL

 END PROCESSING AG STRESS PERIOD DATA OPTIONS
 
 SOLVING FOR HEAD 
                                                   Max.-Head-Change                         Max.-Flux-Residual
  Residual-Control   Outer-Iter.   Inner-Iter.     Column Row Layer    Maximum-Head-Change  Column Row Layer    Maximum-Flux-Residual          L2-NORM 
          0                 1           2             5    8     1       0.6074006194E-01       5    8    1         0.3294117095E+01      0.8060540239E+01
          0                 2           2             5    8     1      -0.5908432116E-02       5    8    1        -0.3294086061E+00      0.9225517347E+00
          0                 3           2             5    8     1       0.4023286739E-03       5    8    1         0.2305864159E-01      0.5765979482E-01
          0                 4           2             4   13     1      -0.1895740508E-03       4   13    1        -0.1115406019E-01      0.1900916922E-01
          0                 5           1             4   13     1      -0.8493702755E-04       4   13    1        -0.4996842452E-02      0.8505888513E-02

    ------------------------------------------------
       NWT REQUIRED            5 OUTER ITERATIONS 
       AND A TOTAL OF          9 INNER ITERATIONS.
    ------------------------------------------------

 NO OUTPUT CONTROL FOR STRESS PERIOD   34   TIME STEP    1
 
 SOLVING FOR HEAD 
                                                   Max.-Head-Change                         Max.-Flux-Residual
  Residual-Control   Outer-Iter.   Inner-Iter.     Column Row Layer    Maximum-Head-Change  Column Row Layer    Maximum-Flux-Residual          L2-NORM 
          0                 1           2             5    8     1       0.5825372924E-01       5    8    1         0.3156393817E+01      0.7808488693E+01
          0                 2           2             5    8     1      -0.5666585738E-02       5    8    1        -0.3156365072E+00      0.8897956962E+00
          0                 3           2             5    8     1       0.3858593272E-03       5    8    1         0.2209459209E-01      0.5540259282E-01
          0                 4           2             4   13     1      -0.1896716316E-03       4   13    1        -0.1115761950E-01      0.1899639241E-01
          0                 5           1             4   13     1      -0.8499887088E-04       4   13    1        -0.4999540944E-02      0.8512589937E-02

    ------------------------------------------------
       NWT REQUIRED            5 OUTER ITERATIONS 
       AND A TOTAL OF          9 INNER ITERATIONS.
    ------------------------------------------------

 NO OUTPUT CONTROL FOR STRESS PERIOD   34   TIME STEP    2
 
 SOLVING FOR HEAD 
                                                   Max.-Head-Change                         Max.-Flux-Residual
  Residual-Control   Outer-Iter.   Inner-Iter.     Column Row Layer    Maximum-Head-Change  Column Row Layer    Maximum-Flux-Residual          L2-NORM 
          0                 1           2             5    6     1       0.5602780537E-01       5    8    1         0.3027182788E+01      0.7567658375E+01
          0                 2           2             5    6     1      -0.5449937373E-02       5    8    1        -0.3027155899E+00      0.8605064322E+00
          0                 3           2             5    6     1       0.3711209187E-03       5    8    1         0.2119012572E-01      0.5401913358E-01
          0                 4           2             4   13     1      -0.1875167931E-03       4   13    1        -0.1102444081E-01      0.1878760527E-01
          0                 5           1             4   13     1      -0.8442540338E-04       4   13    1        -0.4962949581E-02      0.8454513533E-02

    ------------------------------------------------
       NWT REQUIRED            5 OUTER ITERATIONS 
       AND A TOTAL OF          9 INNER ITERATIONS.
    ------------------------------------------------

 NO OUTPUT CONTROL FOR STRESS PERIOD   34   TIME STEP    3
 
 SOLVING FOR HEAD 
                                                   Max.-Head-Change                         Max.-Flux-Residual
  Residual-Control   Outer-Iter.   Inner-Iter.     Column Row Layer    Maximum-Head-Change  Column Row Layer    Maximum-Flux-Residual          L2-NORM 
          0                 1           2             5    6     1       0.5394244254E-01       5    6    1         0.2911839451E+01      0.7346481105E+01
          0                 2           2             5    6     1      -0.5247091519E-02       5    6    1        -0.2911813669E+00      0.8409493450E+00
          0                 3           2             5    6     1       0.3573078379E-03       5    6    1         0.2038272889E-01      0.5250620193E-01
          0                 4           2             4   13     1      -0.1874227107E-03       4   13    1        -0.1101890154E-01      0.1877217310E-01
          0                 5           1             4   13     1      -0.8436910612E-04       4   13    1        -0.4959641070E-02      0.8447800103E-02

    ------------------------------------------------
       NWT REQUIRED            5 OUTER ITERATIONS 
       AND A TOTAL OF          9 INNER ITERATIONS.
    ------------------------------------------------

 NO OUTPUT CONTROL FOR STRESS PERIOD   34   TIME STEP    4
 
 SOLVING FOR HEAD 
                                                   Max.-Head-Change                         Max.-Flux-Residual
  Residual-Control   Outer-Iter.   Inner-Iter.     Column Row Layer    Maximum-Head-Change  Column Row Layer    Maximum-Flux-Residual          L2-NORM 
          0                 1           2             5    6     1       0.5197317530E-01       5    6    1         0.2803453435E+01      0.7137031186E+01
          0                 2           2             5    6     1      -0.5055538345E-02       5    6    1        -0.2803429601E+00      0.8225491440E+00
          0                 3           2             5    6     1       0.3442637493E-03       5    6    1         0.1962403824E-01      0.5107722262E-01
          0                 4           2             4   13     1      -0.1873551718E-03       4   13    1        -0.1101493013E-01      0.1875885850E-01
          0                 5           1             4   13     1      -0.8434609074E-04       4   13    1        -0.4958277806E-02      0.8446273525E-02

    ------------------------------------------------
       NWT REQUIRED            5 OUTER ITERATIONS 
       AND A TOTAL OF          9 INNER ITERATIONS.
    ------------------------------------------------

 NO OUTPUT CONTROL FOR STRESS PERIOD   34   TIME STEP    5
 
 SOLVING FOR HEAD 
                                                   Max.-Head-Change                         Max.-Flux-Residual
  Residual-Control   Outer-Iter.   Inner-Iter.     Column Row Layer    Maximum-Head-Change  Column Row Layer    Maximum-Flux-Residual          L2-NORM 
          0                 1           2             5    7     1       0.5019895703E-01       5    6    1         0.2701111390E+01      0.6938474460E+01
          0                 2           2             5    7     1      -0.4882977085E-02       5    6    1        -0.2701089345E+00      0.8052192338E+00
          0                 3           2             5    7     1       0.3325124342E-03       5    6    1         0.1890765444E-01      0.4982181459E-01
          0                 4           2             4   13     1      -0.1849130449E-03       4   13    1        -0.1087134070E-01      0.1851234687E-01
          0                 5           1             4   13     1      -0.8344684645E-04       4   13    1        -0.4905413693E-02      0.8356427224E-02

    ------------------------------------------------
       NWT REQUIRED            5 OUTER ITERATIONS 
       AND A TOTAL OF          9 INNER ITERATIONS.
    ------------------------------------------------

 NO OUTPUT CONTROL FOR STRESS PERIOD   34   TIME STEP    6
 
 SOLVING FOR HEAD 
                                                   Max.-Head-Change                         Max.-Flux-Residual
  Residual-Control   Outer-Iter.   Inner-Iter.     Column Row Layer    Maximum-Head-Change  Column Row Layer    Maximum-Flux-Residual          L2-NORM 
          0                 1           2             5    7     1       0.4919922496E-01       5    7    1         0.2608890261E+01      0.6750032616E+01
          0                 2           2             5    7     1      -0.4785734141E-02       5    7    1        -0.2608882451E+00      0.7888796823E+00
          0                 3           2             5    7     1       0.3258905087E-03       5    7    1         0.1826219243E-01      0.4867807664E-01
          0                 4           2             4   13     1      -0.1818619137E-03       4   13    1        -0.1069176577E-01      0.1820245376E-01
          0                 5           1             4   13     1      -0.8229717059E-04       4   13    1        -0.4837754374E-02      0.8241016401E-02

    ------------------------------------------------
       NWT REQUIRED            5 OUTER ITERATIONS 
       AND A TOTAL OF          9 INNER ITERATIONS.
    ------------------------------------------------

 NO OUTPUT CONTROL FOR STRESS PERIOD   34   TIME STEP    7
 
 SOLVING FOR HEAD 
                                                   Max.-Head-Change                         Max.-Flux-Residual
  Residual-Control   Outer-Iter.   Inner-Iter.     Column Row Layer    Maximum-Head-Change  Column Row Layer    Maximum-Flux-Residual          L2-NORM 
          0                 1           2             5    7     1       0.4821761103E-01       5    7    1         0.2556924552E+01      0.6570996709E+01
          0                 2           2             5    7     1      -0.4690253129E-02       5    7    1        -0.2556918950E+00      0.7737180467E+00
          0                 3           2             5    7     1       0.3193885718E-03       5    7    1         0.1789844568E-01      0.4751566952E-01
          0                 4           2             4   13     1      -0.1784923267E-03       4   13    1        -0.1049369463E-01      0.1785823003E-01
          0                 5           1             4   13     1      -0.8088020414E-04       4   13    1        -0.4754454118E-02      0.8099501352E-02

    ------------------------------------------------
       NWT REQUIRED            5 OUTER ITERATIONS 
       AND A TOTAL OF          9 INNER ITERATIONS.
    ------------------------------------------------

 NO OUTPUT CONTROL FOR STRESS PERIOD   34   TIME STEP    8
 
 SOLVING FOR HEAD 
                                                   Max.-Head-Change                         Max.-Flux-Residual
  Residual-Control   Outer-Iter.   Inner-Iter.     Column Row Layer    Maximum-Head-Change  Column Row Layer    Maximum-Flux-Residual          L2-NORM 
          0                 1           2             5    7     1       0.4725505432E-01       5    7    1         0.2505914582E+01      0.6400709275E+01
          0                 2           2             5    7     1      -0.4596625443E-02       5    7    1        -0.2505910904E+00      0.7590708035E+00
          0                 3           2             5    7     1       0.3130128399E-03       5    7    1         0.1754138739E-01      0.4654878546E-01
          0                 4           2             4   13     1      -0.1757770561E-03       4   13    1        -0.1033401001E-01      0.1758917637E-01
          0                 5           1             4   13     1      -0.7996350636E-04       4   13    1        -0.4700573169E-02      0.8006975741E-02

    ------------------------------------------------
       NWT REQUIRED            5 OUTER ITERATIONS 
       AND A TOTAL OF          9 INNER ITERATIONS.
    ------------------------------------------------

 NO OUTPUT CONTROL FOR STRESS PERIOD   34   TIME STEP    9
 
 SOLVING FOR HEAD 
                                                   Max.-Head-Change                         Max.-Flux-Residual
  Residual-Control   Outer-Iter.   Inner-Iter.     Column Row Layer    Maximum-Head-Change  Column Row Layer    Maximum-Flux-Residual          L2-NORM 
          0                 1           2             4    7     1       0.4678937220E-01       5    7    1         0.2455892705E+01      0.6238580050E+01
          0                 2           2             4    7     1      -0.4551333703E-02       5    7    1        -0.2455890701E+00      0.7454683189E+00
          0                 3           2             4    7     1       0.3099289062E-03       5    7    1         0.1719124423E-01      0.4555060498E-01
          0                 4           2             4   13     1      -0.1727571879E-03       4   13    1        -0.1015646709E-01      0.1728447438E-01
          0                 5           1             4   13     1      -0.7878295128E-04       4   13    1        -0.4631172361E-02      0.7888657106E-02

    ------------------------------------------------
       NWT REQUIRED            5 OUTER ITERATIONS 
       AND A TOTAL OF          9 INNER ITERATIONS.
    ------------------------------------------------

 NO OUTPUT CONTROL FOR STRESS PERIOD   34   TIME STEP   10
 
 SOLVING FOR HEAD 
                                                   Max.-Head-Change                         Max.-Flux-Residual
  Residual-Control   Outer-Iter.   Inner-Iter.     Column Row Layer    Maximum-Head-Change  Column Row Layer    Maximum-Flux-Residual          L2-NORM 
          0                 1           2             4    7     1       0.4642998123E-01       4    7    1         0.2431073666E+01      0.6084057388E+01
          0                 2           2             4    7     1      -0.4516377511E-02       4   13    1        -0.2433827496E+00      0.7319979197E+00
          0                 3           2             4    7     1       0.3075484919E-03       4    7    1         0.1701755091E-01      0.4486638735E-01
          0                 4           2             4   13     1      -0.1710075980E-03       4   13    1        -0.1005358816E-01      0.1710890193E-01
          0                 5           1             4   13     1      -0.7840012873E-04       4   13    1        -0.4608670087E-02      0.7849796673E-02

    ------------------------------------------------
       NWT REQUIRED            5 OUTER ITERATIONS 
       AND A TOTAL OF          9 INNER ITERATIONS.
    ------------------------------------------------

 NO OUTPUT CONTROL FOR STRESS PERIOD   34   TIME STEP   11
 
 SOLVING FOR HEAD 
                                                   Max.-Head-Change                         Max.-Flux-Residual
  Residual-Control   Outer-Iter.   Inner-Iter.     Column Row Layer    Maximum-Head-Change  Column Row Layer    Maximum-Flux-Residual          L2-NORM 
          0                 1           2             4    7     1       0.4604981268E-01       4    7    1         0.2412403431E+01      0.5936635473E+01
          0                 2           2             4    7     1      -0.4479399923E-02       4   13    1        -0.2432284176E+00      0.7196678462E+00
          0                 3           2             4    7     1       0.3050304312E-03       4    7    1         0.1688686909E-01      0.4405910887E-01
          0                 4           2             4   13     1      -0.1684538099E-03       4   13    1        -0.9903429456E-02      0.1685230756E-01
          0                 5           1             4   13     1      -0.7748338095E-04       4   13    1        -0.4554793166E-02      0.7755969655E-02

    ------------------------------------------------
       NWT REQUIRED            5 OUTER ITERATIONS 
       AND A TOTAL OF          9 INNER ITERATIONS.
    ------------------------------------------------

 NO OUTPUT CONTROL FOR STRESS PERIOD   34   TIME STEP   12
 
 SOLVING FOR HEAD 
                                                   Max.-Head-Change                         Max.-Flux-Residual
  Residual-Control   Outer-Iter.   Inner-Iter.     Column Row Layer    Maximum-Head-Change  Column Row Layer    Maximum-Flux-Residual          L2-NORM 
          0                 1           2             4    7     1       0.4565074055E-01       4    7    1         0.2392641325E+01      0.5795842753E+01
          0                 2           2             4    7     1      -0.4440583256E-02       4   13    1        -0.2432752893E+00      0.7081666444E+00
          0                 3           2             4    7     1       0.3023871389E-03       4    7    1         0.1674854304E-01      0.4321936805E-01
          0                 4           2             4   13     1      -0.1656771379E-03       4   13    1        -0.9740200671E-02      0.1657172248E-01
          0                 5           1             4   13     1      -0.7635622779E-04       4   13    1        -0.4488521014E-02      0.7644355581E-02

    ------------------------------------------------
       NWT REQUIRED            5 OUTER ITERATIONS 
       AND A TOTAL OF          9 INNER ITERATIONS.
    ------------------------------------------------

 NO OUTPUT CONTROL FOR STRESS PERIOD   34   TIME STEP   13
 
 SOLVING FOR HEAD 
                                                   Max.-Head-Change                         Max.-Flux-Residual
  Residual-Control   Outer-Iter.   Inner-Iter.     Column Row Layer    Maximum-Head-Change  Column Row Layer    Maximum-Flux-Residual          L2-NORM 
          0                 1           2             4    7     1       0.4523505123E-01       4    7    1         0.2371913656E+01      0.5661260484E+01
          0                 2           2             4    7     1      -0.4400149938E-02       4   13    1        -0.2431780564E+00      0.6971193111E+00
          0                 3           2             4    7     1       0.2996337612E-03       4    7    1         0.1660345705E-01      0.4249351989E-01
          0                 4           2             4   13     1      -0.1632668987E-03       4   13    1        -0.9598501783E-02      0.1632834111E-01
          0                 5           1             4   13     1      -0.7546451341E-04       4   13    1        -0.4436112042E-02      0.7553450318E-02

    ------------------------------------------------
       NWT REQUIRED            5 OUTER ITERATIONS 
       AND A TOTAL OF          9 INNER ITERATIONS.
    ------------------------------------------------

 NO OUTPUT CONTROL FOR STRESS PERIOD   34   TIME STEP   14
 
 SOLVING FOR HEAD 
                                                   Max.-Head-Change                         Max.-Flux-Residual
  Residual-Control   Outer-Iter.   Inner-Iter.     Column Row Layer    Maximum-Head-Change  Column Row Layer    Maximum-Flux-Residual          L2-NORM 
          0                 1           2             4    7     1       0.4480448428E-01       4    7    1         0.2350317112E+01      0.5532488318E+01
          0                 2           2             4    7     1      -0.4358269199E-02       4   13    1        -0.2430901504E+00      0.6866362561E+00
          0                 3           2             4    7     1       0.2967818213E-03       4    7    1         0.1645228797E-01      0.4181307248E-01
          0                 4           2             4   13     1      -0.1609716751E-03       4   13    1        -0.9463593795E-02      0.1609330490E-01
          0                 5           1             4   13     1      -0.7452513552E-04       4   13    1        -0.4380834755E-02      0.7464731810E-02

    ------------------------------------------------
       NWT REQUIRED            5 OUTER ITERATIONS 
       AND A TOTAL OF          9 INNER ITERATIONS.
    ------------------------------------------------

 NO OUTPUT CONTROL FOR STRESS PERIOD   34   TIME STEP   15
 
 SOLVING FOR HEAD 
                                                   Max.-Head-Change                         Max.-Flux-Residual
  Residual-Control   Outer-Iter.   Inner-Iter.     Column Row Layer    Maximum-Head-Change  Column Row Layer    Maximum-Flux-Residual          L2-NORM 
          0                 1           2             4    7     1       0.4436066141E-01       4    7    1         0.2327941884E+01      0.5409162611E+01
          0                 2           2             4    7     1      -0.4315098808E-02       4   13    1        -0.2430089609E+00      0.6766768025E+00
          0                 3           2             4    7     1       0.2938420632E-03       4    7    1         0.1629566724E-01      0.4117557041E-01
          0                 4           2             4   13     1      -0.1586508873E-03       4   13    1        -0.9327106191E-02      0.1586491537E-01
          0                 5           1             4   13     1      -0.7376272042E-04       4   13    1        -0.4336072355E-02      0.7382274725E-02

    ------------------------------------------------
       NWT REQUIRED            5 OUTER ITERATIONS 
       AND A TOTAL OF          9 INNER ITERATIONS.
    ------------------------------------------------

 NO OUTPUT CONTROL FOR STRESS PERIOD   34   TIME STEP   16
 
 SOLVING FOR HEAD 
                                                   Max.-Head-Change                         Max.-Flux-Residual
  Residual-Control   Outer-Iter.   Inner-Iter.     Column Row Layer    Maximum-Head-Change  Column Row Layer    Maximum-Flux-Residual          L2-NORM 
          0                 1           2             4    7     1       0.4390535997E-01       4    7    1         0.2304886632E+01      0.5290939519E+01
          0                 2           2             4    7     1      -0.4270811672E-02       4   13    1        -0.2429379731E+00      0.6672063190E+00
          0                 3           2             4    7     1       0.2908262608E-03       4    7    1         0.1613428555E-01      0.4057758643E-01
          0                 4           2             4   13     1      -0.1564829930E-03       4   13    1        -0.9199668464E-02      0.1564474535E-01
          0                 5           1             4   13     1      -0.7295177433E-04       4   13    1        -0.4288383759E-02      0.7303098209E-02

    ------------------------------------------------
       NWT REQUIRED            5 OUTER ITERATIONS 
       AND A TOTAL OF          9 INNER ITERATIONS.
    ------------------------------------------------

 NO OUTPUT CONTROL FOR STRESS PERIOD   34   TIME STEP   17
 
 SOLVING FOR HEAD 
                                                   Max.-Head-Change                         Max.-Flux-Residual
  Residual-Control   Outer-Iter.   Inner-Iter.     Column Row Layer    Maximum-Head-Change  Column Row Layer    Maximum-Flux-Residual          L2-NORM 
          0                 1           2             4    7     1       0.4343996802E-01       4    7    1         0.2281228931E+01      0.5177521512E+01
          0                 2           2             4    7     1      -0.4225542826E-02       4   13    1        -0.2428719006E+00      0.6581977729E+00
          0                 3           2             4    7     1       0.2877436094E-03       4    7    1         0.1596868602E-01      0.4001684247E-01
          0                 4           2             4   13     1      -0.1543690343E-03       4   13    1        -0.9075358809E-02      0.1543370839E-01
          0                 5           1             4   13     1      -0.7216466414E-04       4   13    1        -0.4242123126E-02      0.7223029054E-02

    ------------------------------------------------
       NWT REQUIRED            5 OUTER ITERATIONS 
       AND A TOTAL OF          9 INNER ITERATIONS.
    ------------------------------------------------

 NO OUTPUT CONTROL FOR STRESS PERIOD   34   TIME STEP   18
 
 SOLVING FOR HEAD 
                                                   Max.-Head-Change                         Max.-Flux-Residual
  Residual-Control   Outer-Iter.   Inner-Iter.     Column Row Layer    Maximum-Head-Change  Column Row Layer    Maximum-Flux-Residual          L2-NORM 
          0                 1           2             4    7     1       0.4296591310E-01       4    7    1         0.2257048039E+01      0.5068610718E+01
          0                 2           2             4    7     1      -0.4179431149E-02       4   13    1        -0.2428124531E+00      0.6496187027E+00
          0                 3           2             4    7     1       0.2846035658E-03       4    7    1         0.1579942349E-01      0.3949091917E-01
          0                 4           2             4   13     1      -0.1523297599E-03       4   13    1        -0.8955481363E-02      0.1522777284E-01
          0                 5           1             4   13     1      -0.7140456632E-04       4   13    1        -0.4197436538E-02      0.7147016790E-02

    ------------------------------------------------
       NWT REQUIRED            5 OUTER ITERATIONS 
       AND A TOTAL OF          9 INNER ITERATIONS.
    ------------------------------------------------

 NO OUTPUT CONTROL FOR STRESS PERIOD   34   TIME STEP   19
 
 SOLVING FOR HEAD 
                                                   Max.-Head-Change                         Max.-Flux-Residual
  Residual-Control   Outer-Iter.   Inner-Iter.     Column Row Layer    Maximum-Head-Change  Column Row Layer    Maximum-Flux-Residual          L2-NORM 
          0                 1           2             4    7     1       0.4248451243E-01       4    7    1         0.2232417973E+01      0.4963942476E+01
          0                 2           2             4    7     1      -0.4132604784E-02       4   13    1        -0.2427551209E+00      0.6414411505E+00
          0                 3           2             4    7     1       0.2814148562E-03       4    7    1         0.1562701615E-01      0.3900015533E-01
          0                 4           2             4   13     1      -0.1503469070E-03       4   13    1        -0.8838924570E-02      0.1502740439E-01
          0                 5           1             4   13     1      -0.7068039551E-04       4   13    1        -0.4154863233E-02      0.7074569857E-02

    ------------------------------------------------
       NWT REQUIRED            5 OUTER ITERATIONS 
       AND A TOTAL OF          9 INNER ITERATIONS.
    ------------------------------------------------

 NO OUTPUT CONTROL FOR STRESS PERIOD   34   TIME STEP   20
 
 SOLVING FOR HEAD 
                                                   Max.-Head-Change                         Max.-Flux-Residual
  Residual-Control   Outer-Iter.   Inner-Iter.     Column Row Layer    Maximum-Head-Change  Column Row Layer    Maximum-Flux-Residual          L2-NORM 
          0                 1           2             4    7     1       0.4199699918E-01       4    7    1         0.2207407028E+01      0.4863274587E+01
          0                 2           2             4   13     1      -0.4126291981E-02       4   13    1        -0.2427053706E+00      0.6336449079E+00
          0                 3           2             4    7     1       0.2781856496E-03       4    7    1         0.1545194211E-01      0.3852149939E-01
          0                 4           2             4   13     1      -0.1484532600E-03       4   13    1        -0.8727582702E-02      0.1483795274E-01
          0                 5           1             4   13     1      -0.6996166895E-04       4   13    1        -0.4112615345E-02      0.7000673161E-02

    ------------------------------------------------
       NWT REQUIRED            5 OUTER ITERATIONS 
       AND A TOTAL OF          9 INNER ITERATIONS.
    ------------------------------------------------

 NO OUTPUT CONTROL FOR STRESS PERIOD   34   TIME STEP   21
 
 SOLVING FOR HEAD 
                                                   Max.-Head-Change                         Max.-Flux-Residual
  Residual-Control   Outer-Iter.   Inner-Iter.     Column Row Layer    Maximum-Head-Change  Column Row Layer    Maximum-Flux-Residual          L2-NORM 
          0                 1           2             4    7     1       0.4150437558E-01       4    7    1         0.2182071850E+01      0.4766376367E+01
          0                 2           2             4   13     1      -0.4125353400E-02       4   13    1        -0.2426512445E+00      0.6262002381E+00
          0                 3           2             4    7     1       0.2749225852E-03       4    7    1         0.1527459794E-01      0.3808936161E-01
          0                 4           2             4   13     1      -0.1465764649E-03       4   13    1        -0.8617255695E-02      0.1464868650E-01
          0                 5           1             4   13     1      -0.6929123739E-04       4   13    1        -0.4073197107E-02      0.6926105862E-02

    ------------------------------------------------
       NWT REQUIRED            5 OUTER ITERATIONS 
       AND A TOTAL OF          9 INNER ITERATIONS.
    ------------------------------------------------

 NO OUTPUT CONTROL FOR STRESS PERIOD   34   TIME STEP   22
 
 SOLVING FOR HEAD 
                                                   Max.-Head-Change                         Max.-Flux-Residual
  Residual-Control   Outer-Iter.   Inner-Iter.     Column Row Layer    Maximum-Head-Change  Column Row Layer    Maximum-Flux-Residual          L2-NORM 
          0                 1           2             4    7     1       0.4100796712E-01       4    7    1         0.2156486282E+01      0.4673040606E+01
          0                 2           2             4   13     1      -0.4117233866E-02       4   13    1        -0.2421757092E+00      0.6186046928E+00
          0                 3           2             4    7     1       0.2716344442E-03       4    7    1         0.1509550062E-01      0.3796622469E-01
          0                 4           2             4   13     1      -0.1455985602E-03       4   13    1        -0.8559744643E-02      0.1455103349E-01
          0                 5           1             4   13     1      -0.6916890272E-04       4   13    1        -0.4066009438E-02      0.6920522325E-02

    ------------------------------------------------
       NWT REQUIRED            5 OUTER ITERATIONS 
       AND A TOTAL OF          9 INNER ITERATIONS.
    ------------------------------------------------

 NO OUTPUT CONTROL FOR STRESS PERIOD   34   TIME STEP   23
 
 SOLVING FOR HEAD 
                                                   Max.-Head-Change                         Max.-Flux-Residual
  Residual-Control   Outer-Iter.   Inner-Iter.     Column Row Layer    Maximum-Head-Change  Column Row Layer    Maximum-Flux-Residual          L2-NORM 
          0                 1           2             4    7     1       0.4050834182E-01       4    7    1         0.2130682583E+01      0.4583065894E+01
          0                 2           2             4   13     1      -0.4117824735E-02       4   13    1        -0.2422114890E+00      0.6118907890E+00
          0                 3           2             4    7     1       0.2683249892E-03       4    7    1         0.1491487597E-01      0.3754608691E-01
          0                 4           2             4   13     1      -0.1436960101E-03       4   13    1        -0.8447898054E-02      0.1435938748E-01
          0                 5           1             4   13     1      -0.6843279176E-04       4   13    1        -0.4022739350E-02      0.6846837166E-02

    ------------------------------------------------
       NWT REQUIRED            5 OUTER ITERATIONS 
       AND A TOTAL OF          9 INNER ITERATIONS.
    ------------------------------------------------

 NO OUTPUT CONTROL FOR STRESS PERIOD   34   TIME STEP   24
 
 SOLVING FOR HEAD 
                                                   Max.-Head-Change                         Max.-Flux-Residual
  Residual-Control   Outer-Iter.   Inner-Iter.     Column Row Layer    Maximum-Head-Change  Column Row Layer    Maximum-Flux-Residual          L2-NORM 
          0                 1           2             4    7     1       0.4000681382E-01       4    7    1         0.2104733966E+01      0.4496280434E+01
          0                 2           2             4   13     1      -0.4118296416E-02       4   13    1        -0.2422402311E+00      0.6054659831E+00
          0                 3           2             4    7     1       0.2650029256E-03       4    7    1         0.1473323651E-01      0.3715358722E-01
          0                 4           2             4   13     1      -0.1418490742E-03       4   13    1        -0.8339305364E-02      0.1417393725E-01
          0                 5           1             4   13     1      -0.6771438587E-04       4   13    1        -0.3980506050E-02      0.6775074692E-02

    ------------------------------------------------
       NWT REQUIRED            5 OUTER ITERATIONS 
       AND A TOTAL OF          9 INNER ITERATIONS.
    ------------------------------------------------

 NO OUTPUT CONTROL FOR STRESS PERIOD   34   TIME STEP   25
 
 SOLVING FOR HEAD 
                                                   Max.-Head-Change                         Max.-Flux-Residual
  Residual-Control   Outer-Iter.   Inner-Iter.     Column Row Layer    Maximum-Head-Change  Column Row Layer    Maximum-Flux-Residual          L2-NORM 
          0                 1           2             4    7     1       0.3950393203E-01       4    7    1         0.2078672097E+01      0.4412500239E+01
          0                 2           2             4    7     1      -0.3842677943E-02       4   13    1        -0.2188061714E+00      0.5730214693E+00
          0                 3           2             4   13     1      -0.4918629744E-03       4   13    1        -0.2891150341E-01      0.5854834776E-01
          0                 4           2             4   13     1      -0.2079668481E-03       4   13    1        -0.1222614340E-01      0.2079261430E-01
          0                 5           1             4   13     1      -0.8264562250E-04       4   13    1        -0.4858245938E-02      0.8269809345E-02

    ------------------------------------------------
       NWT REQUIRED            5 OUTER ITERATIONS 
       AND A TOTAL OF          9 INNER ITERATIONS.
    ------------------------------------------------

 NO OUTPUT CONTROL FOR STRESS PERIOD   34   TIME STEP   26
 
 SOLVING FOR HEAD 
                                                   Max.-Head-Change                         Max.-Flux-Residual
  Residual-Control   Outer-Iter.   Inner-Iter.     Column Row Layer    Maximum-Head-Change  Column Row Layer    Maximum-Flux-Residual          L2-NORM 
          0                 1           2             4    7     1       0.3900046363E-01       4    7    1         0.2052540025E+01      0.4331555719E+01
          0                 2           2             4   13     1      -0.4116583432E-02       4   13    1        -0.2421417129E+00      0.5932530185E+00
          0                 3           2             4    7     1       0.2583369649E-03       4    7    1         0.1436787974E-01      0.3662225855E-01
          0                 4           2             4   13     1      -0.1431267870E-03       4   13    1        -0.8414407185E-02      0.1429642825E-01
          0                 5           1             4   13     1      -0.6317535748E-04       4   13    1        -0.3713667342E-02      0.6321933126E-02

    ------------------------------------------------
       NWT REQUIRED            5 OUTER ITERATIONS 
       AND A TOTAL OF          9 INNER ITERATIONS.
    ------------------------------------------------

 NO OUTPUT CONTROL FOR STRESS PERIOD   34   TIME STEP   27
 
 SOLVING FOR HEAD 
                                                   Max.-Head-Change                         Max.-Flux-Residual
  Residual-Control   Outer-Iter.   Inner-Iter.     Column Row Layer    Maximum-Head-Change  Column Row Layer    Maximum-Flux-Residual          L2-NORM 
          0                 1           2             4    7     1       0.3849724617E-01       4    7    1         0.2026384823E+01      0.4253337165E+01
          0                 2           2             4    7     1      -0.3744754977E-02       4   13    1        -0.2185614023E+00      0.5606152410E+00
          0                 3           2             4   13     1      -0.5008043372E-03       4   13    1        -0.2943700489E-01      0.5872939975E-01
          0                 4           2             4   13     1      -0.2112824530E-03       4   13    1        -0.1242101939E-01      0.2112054312E-01
          0                 5           1             4   13     1      -0.7782873631E-04       4   13    1        -0.4575074662E-02      0.7788177291E-02

    ------------------------------------------------
       NWT REQUIRED            5 OUTER ITERATIONS 
       AND A TOTAL OF          9 INNER ITERATIONS.
    ------------------------------------------------

 NO OUTPUT CONTROL FOR STRESS PERIOD   34   TIME STEP   28
 
 SOLVING FOR HEAD 
                                                   Max.-Head-Change                         Max.-Flux-Residual
  Residual-Control   Outer-Iter.   Inner-Iter.     Column Row Layer    Maximum-Head-Change  Column Row Layer    Maximum-Flux-Residual          L2-NORM 
          0                 1           2             4    7     1       0.3799479059E-01       4    7    1         0.2000235325E+01      0.4177680126E+01
          0                 2           2             4   13     1      -0.3712406697E-02       4   13    1        -0.2184107483E+00      0.5547447000E+00
          0                 3           2             4   13     1      -0.5060596978E-03       4   13    1        -0.2974588729E-01      0.5891422961E-01
          0                 4           2             4   13     1      -0.2132367012E-03       4   13    1        -0.1253589522E-01      0.2131348006E-01
          0                 5           1             4   13     1      -0.7508010931E-04       4   13    1        -0.4413480146E-02      0.7515587201E-02

    ------------------------------------------------
       NWT REQUIRED            5 OUTER ITERATIONS 
       AND A TOTAL OF          9 INNER ITERATIONS.
    ------------------------------------------------

 NO OUTPUT CONTROL FOR STRESS PERIOD   34   TIME STEP   29
 
 SOLVING FOR HEAD 
                                                   Max.-Head-Change                         Max.-Flux-Residual
  Residual-Control   Outer-Iter.   Inner-Iter.     Column Row Layer    Maximum-Head-Change  Column Row Layer    Maximum-Flux-Residual          L2-NORM 
          0                 1           2             4    7     1       0.3749381361E-01       4    7    1         0.1974132616E+01      0.4104462367E+01
          0                 2           2             4   13     1      -0.3709595074E-02       4   13    1        -0.2182466152E+00      0.5490802352E+00
          0                 3           2             4   13     1      -0.5113411857E-03       4   13    1        -0.3005632226E-01      0.5911774229E-01
          0                 4           2             4   13     1      -0.2151625888E-03       4   13    1        -0.1264908065E-01      0.2150459319E-01
          0                 5           1             4   13     1      -0.7251056812E-04       4   13    1        -0.4262420013E-02      0.7259313862E-02

    ------------------------------------------------
       NWT REQUIRED            5 OUTER ITERATIONS 
       AND A TOTAL OF          9 INNER ITERATIONS.
    ------------------------------------------------

 NO OUTPUT CONTROL FOR STRESS PERIOD   34   TIME STEP   30



 STREAM LISTING     PERIOD     34   STEP       30

 LAYER ROW COL. STREAM  RCH.  FLOW INTO     FLOW TO   FLOW OUT OF   OVRLND.     DIRECT     STREAM       STREAM     STREAM     STREAM   STREAMBED  STREAMBED
                SEG.NO.  NO.  STRM. RCH.    AQUIFER    STRM. RCH.    RUNOFF     PRECIP       ET          HEAD       DEPTH      WIDTH   CONDCTNC.   GRADIENT

   1    1    1     1     1    1.7624E+01  2.0521E-01   1.7419E+01  0.000E+00  0.000E+00  0.000E+00  1.09411E+03  1.059E+00  1.124E+01  5.056E-02  1.353E+00
   1    2    2     1     2    1.7419E+01  3.1648E-01   1.7103E+01  0.000E+00  0.000E+00  0.000E+00  1.08911E+03  1.054E+00  1.115E+01  7.807E-02  1.351E+00
   1    3    3     1     3    1.7103E+01  2.6863E-01   1.6834E+01  0.000E+00  0.000E+00  0.000E+00  1.08347E+03  1.049E+00  1.106E+01  6.635E-02  1.350E+00
   1    3    4     1     4    1.6834E+01  2.4632E-01   1.6588E+01  0.000E+00  0.000E+00  0.000E+00  1.07845E+03  1.044E+00  1.097E+01  6.091E-02  1.348E+00
   1    4    5     2     1    1.4588E+01  3.0175E-01   1.4286E+01  0.000E+00  0.000E+00  0.000E+00  1.07280E+03  8.686E-01  1.200E+01  7.800E-02  1.290E+00
   1    5    6     2     2    1.4286E+01  2.3154E-01   1.4055E+01  0.000E+00  0.000E+00  0.000E+00  1.06737E+03  8.590E-01  1.200E+01  6.000E-02  1.286E+00
   1    6    6     2     3    1.4055E+01  2.3103E-01   1.3824E+01  0.000E+00  0.000E+00  0.000E+00  1.06264E+03  8.505E-01  1.200E+01  6.000E-02  1.284E+00
   1    7    6     2     4    1.3824E+01  2.3052E-01   1.3593E+01  0.000E+00  0.000E+00  0.000E+00  1.05792E+03  8.420E-01  1.200E+01  6.000E-02  1.281E+00
   1    8    6     2     5    1.3593E+01  2.3001E-01   1.3363E+01  0.000E+00  0.000E+00  0.000E+00  1.05319E+03  8.335E-01  1.200E+01  6.000E-02  1.278E+00
   1    3    5     3     1    2.0000E+00  2.8252E-01   1.7175E+00  0.000E+00  0.000E+00  0.000E+00  1.07555E+03  1.909E+00  9.636E+00  7.227E-02  1.955E+00
   1    3    6     3     2    1.7175E+00  2.4905E-01   1.4684E+00  0.000E+00  0.000E+00  0.000E+00  1.07264E+03  1.727E+00  8.909E+00  6.682E-02  1.864E+00
   1    3    7     3     3    1.4684E+00  1.9718E-01   1.2712E+00  0.000E+00  0.000E+00  0.000E+00  1.06987E+03  1.555E+00  8.218E+00  5.547E-02  1.777E+00
   1    4    8     3     4    1.2712E+00  2.2567E-01   1.0456E+00  0.000E+00  0.000E+00  0.000E+00  1.06682E+03  1.364E+00  7.455E+00  6.709E-02  1.682E+00
   1    5    8     3     5    1.0456E+00  1.5790E-01   8.8768E-01  0.000E+00  0.000E+00  0.000E+00  1.06362E+03  1.164E+00  6.655E+00  4.991E-02  1.582E+00
   1    6    8     3     6    8.8768E-01  5.5980E-02   8.3170E-01  0.000E+00  0.000E+00  0.000E+00  1.06158E+03  1.036E+00  6.145E+00  1.844E-02  1.518E+00
   1    5   10     4     1    1.0000E+01  9.0919E-02   9.9091E+00  0.000E+00  0.000E+00  0.000E+00  1.07836E+03  6.368E-01  1.000E+01  2.500E-02  1.212E+00
   1    5    9     4     2    9.9091E+00  1.8158E-01   9.7275E+00  0.000E+00  0.000E+00  0.000E+00  1.07154E+03  6.315E-01  1.000E+01  5.000E-02  1.211E+00
   1    6    8     4     3    9.7275E+00  1.2689E-01   9.6006E+00  0.000E+00  0.000E+00  0.000E+00  1.06381E+03  6.256E-01  1.000E+01  3.500E-02  1.209E+00
   1    6    8     5     1    1.0432E+01  2.2686E-01   1.0205E+01  0.000E+00  0.000E+00  0.000E+00  1.05868E+03  6.790E-01  1.542E+01  6.166E-02  1.226E+00
   1    7    7     5     2    1.0205E+01  2.7894E-01   9.9265E+00  0.000E+00  0.000E+00  0.000E+00  1.05417E+03  6.732E-01  1.519E+01  7.594E-02  1.224E+00
   1    8    7     5     3    9.9265E+00  1.9221E-01   9.7343E+00  0.000E+00  0.000E+00  0.000E+00  1.04992E+03  6.676E-01  1.497E+01  5.241E-02  1.223E+00
   1    8    6     5     4    9.7343E+00  1.3577E-01   9.5985E+00  0.000E+00  0.000E+00  0.000E+00  1.04691E+03  6.637E-01  1.482E+01  3.706E-02  1.221E+00
   1    9    6     6     1    1.1996E+01  2.2715E-01   1.1769E+01  0.000E+00  0.000E+00  0.000E+00  1.04351E+03  7.858E-01  1.200E+01  6.000E-02  1.262E+00
   1   10    7     6     2    1.1769E+01  2.2661E-01   1.1542E+01  0.000E+00  0.000E+00  0.000E+00  1.03896E+03  7.768E-01  1.200E+01  6.000E-02  1.259E+00
   1   11    7     6     3    1.1542E+01  2.2607E-01   1.1316E+01  0.000E+00  0.000E+00  0.000E+00  1.03440E+03  7.678E-01  1.200E+01  6.000E-02  1.256E+00
   1   12    7     6     4    1.1316E+01  2.2553E-01   1.1091E+01  0.000E+00  0.000E+00  0.000E+00  1.02985E+03  7.588E-01  1.200E+01  6.000E-02  1.253E+00
   1   13    7     6     5    1.1091E+01  8.4228E-05   1.1091E+01  0.000E+00  0.000E+00  0.000E+00  1.02666E+03  7.542E-01  1.200E+01  2.400E-02  1.170E-03
   1   14    9     7     1    1.5000E+02  1.3821E+00   1.4862E+02  0.000E+00  0.000E+00  0.000E+00  1.03987E+03  2.288E+00  5.529E+01  5.593E-01  8.237E-01
   1   13    8     7     2    1.4862E+02  1.9717E+00   1.4665E+02  0.000E+00  0.000E+00  0.000E+00  1.03478E+03  2.279E+00  5.525E+01  6.147E-01  1.069E+00
   1   13    7     7     3    1.4665E+02  1.6910E+00   1.4496E+02  0.000E+00  0.000E+00  0.000E+00  1.02969E+03  2.269E+00  5.521E+01  5.584E-01  1.009E+00
   1   13    6     8     1    1.5605E+02  1.0593E+00   1.5499E+02  0.000E+00  0.000E+00  0.000E+00  1.02473E+03  2.856E+00  4.141E+01  4.220E-01  8.367E-01
   1   13    5     8     2    1.5499E+02  3.1223E-01   1.5467E+02  0.000E+00  0.000E+00  0.000E+00  1.01848E+03  2.851E+00  4.134E+01  4.213E-01  2.470E-01
   1   13    4     8     3    1.5467E+02 -1.9565E+00   1.5663E+02  0.000E+00  0.000E+00  0.000E+00  1.01223E+03  2.857E+00  4.143E+01  4.221E+00 -1.545E-01
   1   13    3     8     4    1.5663E+02 -3.3994E+00   1.6003E+02  0.000E+00  0.000E+00  0.000E+00  1.00600E+03  2.875E+00  4.169E+01  4.248E+00 -2.667E-01
   1   13    2     8     5    1.6003E+02 -2.5111E+00   1.6254E+02  0.000E+00  0.000E+00  0.000E+00  9.99770E+02  2.895E+00  4.198E+01  4.278E+00 -1.957E-01
   1   13    1     8     6    1.6254E+02 -1.9581E+00   1.6450E+02  0.000E+00  0.000E+00  0.000E+00  9.94785E+02  2.910E+00  4.220E+01  2.580E+00 -2.530E-01
   1    8    6     9     1    1.0965E+01  0.0000E+00   1.0965E+01  0.000E+00  0.000E+00  0.000E+00  1.08113E+03  2.381E+00  4.000E+00  0.000E+00  1.794E+00
   1    8    5     9     2    1.0965E+01  0.0000E+00   1.0965E+01  0.000E+00  0.000E+00  0.000E+00  1.08063E+03  2.381E+00  4.000E+00  0.000E+00  1.794E+00





UNSATURATED ZONE PACKAGE VOLUMETRIC BUDGET FOR  TIME STEP    30 STRESS PERIOD   34
  ------------------------------------------------------------------------------



     CUMULATIVE VOLUMES      L**3       RATES FOR THIS TIME STEP      L**3/T
     ------------------                 ------------------------

           IN:                                      IN:
           ---                                      ---
        INFILTRATION =  1572340624.3552          INFILTRATION =          15.3731

          OUT:                                     OUT:
          ----                                     ----
              UZF ET =  1476893217.6251                UZF ET =          15.3030
        UZF RECHARGE =      717884.2805          UZF RECHARGE =       0.0000E+00

            IN - OUT =    94729522.4496              IN - OUT =       7.0111E-02

          STORAGE:                                 STORAGE:
          --------                                 --------
      STORAGE CHANGE =    94729501.2988        STORAGE CHANGE =       7.0111E-02

 PERCENT DISCREPANCY IS DIFFERENCE BETWEEN IN-OUT MINUS CHANGE IN STORAGE
 DIVIDED BY THE AVERAGE OF IN AND OUT TIMES 100

 PERCENT DISCREPANCY =           0.00     PERCENT DISCREPANCY =           0.00






1
  VOLUMETRIC BUDGET FOR AGRICULTURAL FIELDS AT  END OF TIME STEP   30, STRESS PERIOD  34
  ------------------------------------------------------------------------------

     CUMULATIVE VOLUMES      L**3       RATES FOR THIS TIME STEP      L**3/T
     ------------------                 ------------------------

           IN:                                      IN:
           ---                                      ---
               AG WELLS  =   593838720.0000                 AG WELLS  =           0.0000
      DIVERSION SEGMENTS =   595890560.0000        DIVERSION SEGMENTS =          10.9654
           GW IRRIGATION =           0.0000             GW IRRIGATION =           0.0000
           SW IRRIGATION =           0.0000             SW IRRIGATION =           0.0000
        SYSTEM LOSSES GW =           0.0000          SYSTEM LOSSES GW =           0.0000
        SYSTEM LOSSES SW =           0.0000          SYSTEM LOSSES SW =           0.0000

                TOTAL IN =  1189729280.0000                  TOTAL IN =          10.9654

          OUT:                                     OUT:
          ----                                     ----
               AG WELLS  =           0.0000                 AG WELLS  =           0.0000
      DIVERSION SEGMENTS =           0.0000        DIVERSION SEGMENTS =           0.0000
           GW IRRIGATION =   593838720.0000             GW IRRIGATION =           0.0000
           SW IRRIGATION =   595902016.0000             SW IRRIGATION =          10.9656
        SYSTEM LOSSES GW =           0.0000          SYSTEM LOSSES GW =           0.0000
        SYSTEM LOSSES SW =           0.0000          SYSTEM LOSSES SW =           0.0000

               TOTAL OUT =  1189740800.0000                 TOTAL OUT =          10.9656

                IN - OUT =      -11520.0000                  IN - OUT =      -2.1935E-04

     PERCENT DISCREPANCY =          -0.00         PERCENT DISCREPANCY =          -0.00



1
  VOLUMETRIC BUDGET FOR ENTIRE MODEL AT END OF TIME STEP   30, STRESS PERIOD  34
  ------------------------------------------------------------------------------

     CUMULATIVE VOLUMES      L**3       RATES FOR THIS TIME STEP      L**3/T
     ------------------                 ------------------------

           IN:                                      IN:
           ---                                      ---
             STORAGE     =   832850880.0000               STORAGE     =           7.4025
       CONSTANT HEAD     =           0.0000         CONSTANT HEAD     =           0.0000
     HEAD DEP BOUNDS     =    25040658.0000       HEAD DEP BOUNDS     =           0.2889
      STREAM LEAKAGE     =  1025861312.0000        STREAM LEAKAGE     =          11.9847
        UZF RECHARGE     =      717884.3750          UZF RECHARGE     =           0.0000
               GW ET     =           0.0000                 GW ET     =           0.0000
     SURFACE LEAKAGE     =           0.0000       SURFACE LEAKAGE     =           0.0000
           AG WELLS      =           0.0000             AG WELLS      =           0.0000

                TOTAL IN =  1884470656.0000                  TOTAL IN =          19.6761

          OUT:                                     OUT:
          ----                                     ----
             STORAGE     =   383544704.0000               STORAGE     =           9.5631
       CONSTANT HEAD     =           0.0000         CONSTANT HEAD     =           0.0000
     HEAD DEP BOUNDS     =    25009706.0000       HEAD DEP BOUNDS     =           0.2867
      STREAM LEAKAGE     =   882028224.0000        STREAM LEAKAGE     =           9.8251
        UZF RECHARGE     =           0.0000          UZF RECHARGE     =           0.0000
               GW ET     =           0.0000                 GW ET     =           0.0000
     SURFACE LEAKAGE     =           0.0000       SURFACE LEAKAGE     =           0.0000
           AG WELLS      =   593838720.0000             AG WELLS      =           0.0000

               TOTAL OUT =  1884421376.0000                 TOTAL OUT =          19.6749

                IN - OUT =       49280.0000                  IN - OUT =       1.2321E-03

     PERCENT DISCREPANCY =           0.00         PERCENT DISCREPANCY =           0.01






         TIME SUMMARY AT END OF TIME STEP   30 IN STRESS PERIOD   34
                    SECONDS     MINUTES      HOURS       DAYS        YEARS
                    -----------------------------------------------------------
   TIME STEP LENGTH  87667.      1461.1      24.352      1.0147     2.77799E-03
 STRESS PERIOD TIME 2.63000E+06  43833.      730.56      30.440     8.33397E-02
         TOTAL TIME 8.68762E+07 1.44794E+06  24132.      1005.5      2.7529    
1
1
                            STRESS PERIOD NO.   35, LENGTH =   2630000.    
                            -----------------------------------------------

                              NUMBER OF TIME STEPS =    30

                               MULTIPLIER FOR DELT =     1.000

                            INITIAL TIME STEP SIZE =   87666.66    

 REUSING NON-PARAMETER GHB CELLS FROM LAST STRESS PERIOD

      2 GHB CELLS

 REUSING STREAM SEGMENT DATA FROM LAST STRESS PERIOD



            AREAL INFILTRATION RATE
 READING ON UNIT   19 WITH FORMAT: (10F4.0)            

            1           2           3           4           5           6           7           8           9          10
 ........................................................................................................................
   1   1.2000E-09   0.000       0.000       0.000       0.000       0.000       0.000       0.000       0.000       0.000    
   2   2.1000E-09  2.0000E-09  8.0000E-10  8.5000E-09   0.000       0.000       0.000       0.000       0.000       0.000    
   3   5.0000E-10  1.1000E-09  8.8000E-09  5.5000E-09   0.000       0.000       0.000       0.000       0.000       0.000    
   4   8.5000E-09  1.1000E-09  1.1000E-09  1.1000E-09  2.0000E-09   0.000       0.000       0.000       0.000       0.000    
   5   8.5000E-09  1.1000E-09  1.1000E-09  1.1000E-09  1.1000E-09   0.000       0.000       0.000       0.000       0.000    
   6   8.5000E-09  5.2000E-09  2.1000E-09  1.1000E-09  1.5000E-09   0.000       0.000       0.000       0.000       0.000    
   7   8.5000E-09  5.2000E-09  2.1000E-09  1.2000E-09  2.0000E-09   0.000       0.000       0.000       0.000       0.000    
   8   5.0000E-10  5.2000E-09  2.1000E-09  1.2000E-09  5.0000E-09   0.000       0.000       0.000       0.000       0.000    
   9   5.0000E-10  5.2000E-09  2.1000E-09  1.2000E-09  5.0000E-09   0.000       0.000       0.000       0.000       0.000    
  10   5.0000E-10  5.2000E-09  2.1000E-09  1.2000E-09  5.8000E-09   0.000       0.000       0.000       0.000       0.000    
  11   1.0000E-10  1.1000E-09  1.1000E-09  1.2000E-09  5.0000E-09   0.000       0.000       0.000       0.000       0.000    
  12   1.1000E-09  1.1000E-09  1.1000E-09  1.1000E-09  2.0000E-09   0.000       0.000       0.000       0.000       0.000    
  13   1.1000E-09  2.2000E-09  2.2000E-09  2.1000E-09  1.0000E-09   0.000       0.000       0.000       0.000       0.000    
  14   2.0000E-10  5.5000E-09  5.5000E-09  5.2000E-09  1.0000E-09   0.000       0.000       0.000       0.000       0.000    
  15    0.000      8.8000E-09  8.8000E-09   0.000       0.000       0.000       0.000       0.000       0.000       0.000    

                  ET RATE =  5.000000E-09

 USING ET EXTINCTION DEPTH FROM PREVIOUS STRESS PERIOD. CURRENT PERIOD IS:      35

 USING EXTINCTION WATER CONTENT FROM PREVIOUS STRESS PERIOD. CURRENT PERIOD IS:      35

 USING AIR ENTRY PRESSURE FROM PREVIOUS STRESS PERIOD. CURRENT PERIOD IS:      35

 USING ROOT PRESSURE HEAD FROM PREVIOUS STRESS PERIOD. CURRENT PERIOD IS:      35

 USING ROOT ACTIVITY FROM PREVIOUS STRESS PERIOD. CURRENT PERIOD IS:      35

 PROCESSING AG STRESS PERIOD DATA

 READING AG STRESS PERIOD DATA

 READING IRRIGATION SEGMENT

 READING IRRIGATION WELL

 READING SUPPLEMENTAL WELL

 END PROCESSING AG STRESS PERIOD DATA OPTIONS
 
 SOLVING FOR HEAD 
                                                   Max.-Head-Change                         Max.-Flux-Residual
  Residual-Control   Outer-Iter.   Inner-Iter.     Column Row Layer    Maximum-Head-Change  Column Row Layer    Maximum-Flux-Residual          L2-NORM 
          0                 1           2             4    7     1       0.3699485772E-01       4    7    1         0.1948106562E+01      0.4033578668E+01
          0                 2           2             4    7     1      -0.3598613236E-02       4    7    1        -0.1948121821E+00      0.4050223206E+00
          0                 3           2             4    7     1       0.2450520007E-03       4    7    1         0.1363684421E-01      0.2810900010E-01
          0                 4           1             4   13     1      -0.1584562572E-04       4   13    1        -0.9332496411E-03      0.1943178469E-02

    ------------------------------------------------
       NWT REQUIRED            4 OUTER ITERATIONS 
       AND A TOTAL OF          7 INNER ITERATIONS.
    ------------------------------------------------

 NO OUTPUT CONTROL FOR STRESS PERIOD   35   TIME STEP    1
 
 SOLVING FOR HEAD 
                                                   Max.-Head-Change                         Max.-Flux-Residual
  Residual-Control   Outer-Iter.   Inner-Iter.     Column Row Layer    Maximum-Head-Change  Column Row Layer    Maximum-Flux-Residual          L2-NORM 
          0                 1           2             4    7     1       0.3649824574E-01       4    7    1         0.1922178104E+01      0.3955494522E+01
          0                 2           2             4    7     1      -0.3550306265E-02       4    7    1        -0.1922193245E+00      0.3967940950E+00
          0                 3           2             4    7     1       0.2417624767E-03       4    7    1         0.1345534421E-01      0.2768681458E-01
          0                 4           1             4   13     1      -0.1627140355E-04       4   13    1        -0.9578816989E-03      0.1972681453E-02

    ------------------------------------------------
       NWT REQUIRED            4 OUTER ITERATIONS 
       AND A TOTAL OF          7 INNER ITERATIONS.
    ------------------------------------------------

 NO OUTPUT CONTROL FOR STRESS PERIOD   35   TIME STEP    2
 
 SOLVING FOR HEAD 
                                                   Max.-Head-Change                         Max.-Flux-Residual
  Residual-Control   Outer-Iter.   Inner-Iter.     Column Row Layer    Maximum-Head-Change  Column Row Layer    Maximum-Flux-Residual          L2-NORM 
          0                 1           2             4    7     1       0.3600441176E-01       4    7    1         0.1896371050E+01      0.3885200539E+01
          0                 2           2             4    7     1      -0.3502269483E-02       4    7    1        -0.1896386052E+00      0.3894575586E+00
          0                 3           2             4    7     1       0.2384913519E-03       4    7    1         0.1327469392E-01      0.2727269174E-01
          0                 4           1             4   13     1      -0.1669741677E-04       4   13    1        -0.9826522146E-03      0.1999972148E-02

    ------------------------------------------------
       NWT REQUIRED            4 OUTER ITERATIONS 
       AND A TOTAL OF          7 INNER ITERATIONS.
    ------------------------------------------------

 NO OUTPUT CONTROL FOR STRESS PERIOD   35   TIME STEP    3
 
 SOLVING FOR HEAD 
                                                   Max.-Head-Change                         Max.-Flux-Residual
  Residual-Control   Outer-Iter.   Inner-Iter.     Column Row Layer    Maximum-Head-Change  Column Row Layer    Maximum-Flux-Residual          L2-NORM 
          0                 1           2             4    7     1       0.3551402964E-01       4    7    1         0.1870722623E+01      0.3819417512E+01
          0                 2           2             4    7     1      -0.3454568444E-02       4    7    1        -0.1870737465E+00      0.3828436277E+00
          0                 3           2             4    7     1       0.2352430898E-03       4    7    1         0.1309515386E-01      0.2681731623E-01
          0                 4           1             4   13     1      -0.1764252569E-04       4   13    1        -0.1038254150E-02      0.2071212323E-02

    ------------------------------------------------
       NWT REQUIRED            4 OUTER ITERATIONS 
       AND A TOTAL OF          7 INNER ITERATIONS.
    ------------------------------------------------

 NO OUTPUT CONTROL FOR STRESS PERIOD   35   TIME STEP    4
 
 SOLVING FOR HEAD 
                                                   Max.-Head-Change                         Max.-Flux-Residual
  Residual-Control   Outer-Iter.   Inner-Iter.     Column Row Layer    Maximum-Head-Change  Column Row Layer    Maximum-Flux-Residual          L2-NORM 
          0                 1           2             4    7     1       0.3502718862E-01       4    7    1         0.1845238561E+01      0.3755646469E+01
          0                 2           2             4    7     1      -0.3407211831E-02       4    7    1        -0.1845253225E+00      0.3764297117E+00
          0                 3           2             4    7     1       0.2320182830E-03       4    7    1         0.1291676428E-01      0.2637054065E-01
          0                 4           1             4   13     1      -0.1831150387E-04       4   13    1        -0.1077599493E-02      0.2120017567E-02

    ------------------------------------------------
       NWT REQUIRED            4 OUTER ITERATIONS 
       AND A TOTAL OF          7 INNER ITERATIONS.
    ------------------------------------------------

 NO OUTPUT CONTROL FOR STRESS PERIOD   35   TIME STEP    5
 
 SOLVING FOR HEAD 
                                                   Max.-Head-Change                         Max.-Flux-Residual
  Residual-Control   Outer-Iter.   Inner-Iter.     Column Row Layer    Maximum-Head-Change  Column Row Layer    Maximum-Flux-Residual          L2-NORM 
          0                 1           2             4    7     1       0.3454422238E-01       4    7    1         0.1819938092E+01      0.3693784221E+01
          0                 2           2             4    7     1      -0.3360232103E-02       4    7    1        -0.1819952561E+00      0.3702094950E+00
          0                 3           2             4    7     1       0.2288191401E-03       4    7    1         0.1273965973E-01      0.2594567304E-01
          0                 4           1             4   13     1      -0.1925769666E-04       4   13    1        -0.1133257604E-02      0.2194843764E-02

    ------------------------------------------------
       NWT REQUIRED            4 OUTER ITERATIONS 
       AND A TOTAL OF          7 INNER ITERATIONS.
    ------------------------------------------------

 NO OUTPUT CONTROL FOR STRESS PERIOD   35   TIME STEP    6
 
 SOLVING FOR HEAD 
                                                   Max.-Head-Change                         Max.-Flux-Residual
  Residual-Control   Outer-Iter.   Inner-Iter.     Column Row Layer    Maximum-Head-Change  Column Row Layer    Maximum-Flux-Residual          L2-NORM 
          0                 1           2             4    7     1       0.3406569868E-01       4    7    1         0.1794853119E+01      0.3633750966E+01
          0                 2           2             4    7     1      -0.3313684494E-02       4    7    1        -0.1794867380E+00      0.3641742683E+00
          0                 3           2             4    7     1       0.2256494238E-03       4    7    1         0.1256406361E-01      0.2553218676E-01
          0                 4           1             4   13     1      -0.1979939076E-04       4   13    1        -0.1165125168E-02      0.2234738918E-02

    ------------------------------------------------
       NWT REQUIRED            4 OUTER ITERATIONS 
       AND A TOTAL OF          7 INNER ITERATIONS.
    ------------------------------------------------

 NO OUTPUT CONTROL FOR STRESS PERIOD   35   TIME STEP    7
 
 SOLVING FOR HEAD 
                                                   Max.-Head-Change                         Max.-Flux-Residual
  Residual-Control   Outer-Iter.   Inner-Iter.     Column Row Layer    Maximum-Head-Change  Column Row Layer    Maximum-Flux-Residual          L2-NORM 
          0                 1           2             4    7     1       0.3359160542E-01       4    7    1         0.1769983874E+01      0.3575455189E+01
          0                 2           2             4    7     1      -0.3267567828E-02       4    7    1        -0.1769997916E+00      0.3583148360E+00
          0                 3           2             4    7     1       0.2225090531E-03       4    7    1         0.1238997748E-01      0.2513827208E-01
          0                 4           1             4   13     1      -0.1988249441E-04       4   13    1        -0.1169995906E-02      0.2235589579E-02

    ------------------------------------------------
       NWT REQUIRED            4 OUTER ITERATIONS 
       AND A TOTAL OF          7 INNER ITERATIONS.
    ------------------------------------------------

 NO OUTPUT CONTROL FOR STRESS PERIOD   35   TIME STEP    8
 
 SOLVING FOR HEAD 
                                                   Max.-Head-Change                         Max.-Flux-Residual
  Residual-Control   Outer-Iter.   Inner-Iter.     Column Row Layer    Maximum-Head-Change  Column Row Layer    Maximum-Flux-Residual          L2-NORM 
          0                 1           2             4    7     1       0.3312244361E-01       4    7    1         0.1745358939E+01      0.3518811645E+01
          0                 2           2             4    7     1      -0.3221930845E-02       4    7    1        -0.1745372752E+00      0.3526225196E+00
          0                 3           2             4    7     1       0.2194013465E-03       4    7    1         0.1221760148E-01      0.2475574465E-01
          0                 4           1             4   13     1      -0.1996893472E-04       4   13    1        -0.1175076513E-02      0.2236650728E-02

    ------------------------------------------------
       NWT REQUIRED            4 OUTER ITERATIONS 
       AND A TOTAL OF          7 INNER ITERATIONS.
    ------------------------------------------------

 NO OUTPUT CONTROL FOR STRESS PERIOD   35   TIME STEP    9
 
 SOLVING FOR HEAD 
                                                   Max.-Head-Change                         Max.-Flux-Residual
  Residual-Control   Outer-Iter.   Inner-Iter.     Column Row Layer    Maximum-Head-Change  Column Row Layer    Maximum-Flux-Residual          L2-NORM 
          0                 1           2             4    7     1       0.3265815106E-01       4    7    1         0.1720975080E+01      0.3463761525E+01
          0                 2           2             4    7     1      -0.3176767495E-02       4    7    1        -0.1720988656E+00      0.3470878507E+00
          0                 3           2             4    7     1       0.2163258934E-03       4    7    1         0.1204691295E-01      0.2438282581E-01
          0                 4           1             4   13     1      -0.1998830679E-04       4   13    1        -0.1176217544E-02      0.2231924548E-02

    ------------------------------------------------
       NWT REQUIRED            4 OUTER ITERATIONS 
       AND A TOTAL OF          7 INNER ITERATIONS.
    ------------------------------------------------

 NO OUTPUT CONTROL FOR STRESS PERIOD   35   TIME STEP   10
 
 SOLVING FOR HEAD 
                                                   Max.-Head-Change                         Max.-Flux-Residual
  Residual-Control   Outer-Iter.   Inner-Iter.     Column Row Layer    Maximum-Head-Change  Column Row Layer    Maximum-Flux-Residual          L2-NORM 
          0                 1           2             4    7     1       0.3219904467E-01       4    7    1         0.1696850982E+01      0.3410227526E+01
          0                 2           2             4    7     1      -0.3132108608E-02       4    7    1        -0.1696864314E+00      0.3417124141E+00
          0                 3           2             4    7     1       0.2132847922E-03       4    7    1         0.1187804271E-01      0.2402283028E-01
          0                 4           1             4   13     1      -0.2012962080E-04       4   13    1        -0.1184548908E-02      0.2236690011E-02

    ------------------------------------------------
       NWT REQUIRED            4 OUTER ITERATIONS 
       AND A TOTAL OF          7 INNER ITERATIONS.
    ------------------------------------------------

 NO OUTPUT CONTROL FOR STRESS PERIOD   35   TIME STEP   11
 
 SOLVING FOR HEAD 
                                                   Max.-Head-Change                         Max.-Flux-Residual
  Residual-Control   Outer-Iter.   Inner-Iter.     Column Row Layer    Maximum-Head-Change  Column Row Layer    Maximum-Flux-Residual          L2-NORM 
          0                 1           2             4    7     1       0.3174541449E-01       4    7    1         0.1673003076E+01      0.3358150074E+01
          0                 2           2             4    7     1      -0.3087982398E-02       4    7    1        -0.1673016160E+00      0.3364833878E+00
          0                 3           2             4    7     1       0.2102799641E-03       4    7    1         0.1171110579E-01      0.2367211082E-01
          0                 4           1             4   13     1      -0.2024284855E-04       4   13    1        -0.1191155012E-02      0.2242230427E-02

    ------------------------------------------------
       NWT REQUIRED            4 OUTER ITERATIONS 
       AND A TOTAL OF          7 INNER ITERATIONS.
    ------------------------------------------------

 NO OUTPUT CONTROL FOR STRESS PERIOD   35   TIME STEP   12
 
 SOLVING FOR HEAD 
                                                   Max.-Head-Change                         Max.-Flux-Residual
  Residual-Control   Outer-Iter.   Inner-Iter.     Column Row Layer    Maximum-Head-Change  Column Row Layer    Maximum-Flux-Residual          L2-NORM 
          0                 1           2             4    7     1       0.3129725782E-01       4    7    1         0.1649431794E+01      0.3307461533E+01
          0                 2           2             4    7     1      -0.3044388606E-02       4    7    1        -0.1649444625E+00      0.3313932288E+00
          0                 3           2             4    7     1       0.2073113926E-03       4    7    1         0.1154610524E-01      0.2333143441E-01
          0                 4           1             4   13     1      -0.2033555673E-04       4   13    1        -0.1196646823E-02      0.2244004371E-02

    ------------------------------------------------
       NWT REQUIRED            4 OUTER ITERATIONS 
       AND A TOTAL OF          7 INNER ITERATIONS.
    ------------------------------------------------

 NO OUTPUT CONTROL FOR STRESS PERIOD   35   TIME STEP   13
 
 SOLVING FOR HEAD 
                                                   Max.-Head-Change                         Max.-Flux-Residual
  Residual-Control   Outer-Iter.   Inner-Iter.     Column Row Layer    Maximum-Head-Change  Column Row Layer    Maximum-Flux-Residual          L2-NORM 
          0                 1           2             4    7     1       0.3085468825E-01       4    7    1         0.1626144300E+01      0.3258106847E+01
          0                 2           2             4    7     1      -0.3001338281E-02       4    7    1        -0.1626156875E+00      0.3264379727E+00
          0                 3           2             4    7     1       0.2043798285E-03       4    7    1         0.1138309114E-01      0.2299960242E-01
          0                 4           1             4   13     1      -0.2043981129E-04       4   13    1        -0.1202783594E-02      0.2247920856E-02

    ------------------------------------------------
       NWT REQUIRED            4 OUTER ITERATIONS 
       AND A TOTAL OF          7 INNER ITERATIONS.
    ------------------------------------------------

 NO OUTPUT CONTROL FOR STRESS PERIOD   35   TIME STEP   14
 
 SOLVING FOR HEAD 
                                                   Max.-Head-Change                         Max.-Flux-Residual
  Residual-Control   Outer-Iter.   Inner-Iter.     Column Row Layer    Maximum-Head-Change  Column Row Layer    Maximum-Flux-Residual          L2-NORM 
          0                 1           2             4    7     1       0.3041780078E-01       4    7    1         0.1603146482E+01      0.3210032586E+01
          0                 2           2             4    7     1      -0.2958840668E-02       4    7    1        -0.1603158801E+00      0.3216120420E+00
          0                 3           2             4    7     1       0.2014859022E-03       4    7    1         0.1122210480E-01      0.2267692569E-01
          0                 4           1             4   13     1      -0.2054202498E-04       4   13    1        -0.1208801020E-02      0.2251280490E-02

    ------------------------------------------------
       NWT REQUIRED            4 OUTER ITERATIONS 
       AND A TOTAL OF          7 INNER ITERATIONS.
    ------------------------------------------------

 NO OUTPUT CONTROL FOR STRESS PERIOD   35   TIME STEP   15
 
 SOLVING FOR HEAD 
                                                   Max.-Head-Change                         Max.-Flux-Residual
  Residual-Control   Outer-Iter.   Inner-Iter.     Column Row Layer    Maximum-Head-Change  Column Row Layer    Maximum-Flux-Residual          L2-NORM 
          0                 1           2             4    7     1       0.2998680840E-01       4    7    1         0.1580450575E+01      0.3163191962E+01
          0                 2           2             4    7     1      -0.2916916484E-02       4    7    1        -0.1580462635E+00      0.3169104709E+00
          0                 3           2             4    7     1       0.1986310244E-03       4    7    1         0.1106323182E-01      0.2236348957E-01
          0                 4           1             4   13     1      -0.2063071272E-04       4   13    1        -0.1214042473E-02      0.2254379409E-02

    ------------------------------------------------
       NWT REQUIRED            4 OUTER ITERATIONS 
       AND A TOTAL OF          7 INNER ITERATIONS.
    ------------------------------------------------

 NO OUTPUT CONTROL FOR STRESS PERIOD   35   TIME STEP   16
 
 SOLVING FOR HEAD 
                                                   Max.-Head-Change                         Max.-Flux-Residual
  Residual-Control   Outer-Iter.   Inner-Iter.     Column Row Layer    Maximum-Head-Change  Column Row Layer    Maximum-Flux-Residual          L2-NORM 
          0                 1           2             4    7     1       0.2956176887E-01       4    7    1         0.1558060315E+01      0.3117538595E+01
          0                 2           2             4    7     1      -0.2875571351E-02       4    7    1        -0.1558072117E+00      0.3123290924E+00
          0                 3           2             4    7     1       0.1958155774E-03       4    7    1         0.1090649834E-01      0.2205691048E-01
          0                 4           1             4   13     1      -0.2076726206E-04       4   13    1        -0.1222002838E-02      0.2263722927E-02

    ------------------------------------------------
       NWT REQUIRED            4 OUTER ITERATIONS 
       AND A TOTAL OF          7 INNER ITERATIONS.
    ------------------------------------------------

 NO OUTPUT CONTROL FOR STRESS PERIOD   35   TIME STEP   17
 
 SOLVING FOR HEAD 
                                                   Max.-Head-Change                         Max.-Flux-Residual
  Residual-Control   Outer-Iter.   Inner-Iter.     Column Row Layer    Maximum-Head-Change  Column Row Layer    Maximum-Flux-Residual          L2-NORM 
          0                 1           2             4    7     1       0.2914258882E-01       4    7    1         0.1535971390E+01      0.3073019134E+01
          0                 2           2             4    7     1      -0.2834796185E-02       4    7    1        -0.1535982934E+00      0.3078620118E+00
          0                 3           2             4    7     1       0.1930389435E-03       4    7    1         0.1075187425E-01      0.2175968441E-01
          0                 4           1             4   13     1      -0.2087437035E-04       4   13    1        -0.1228359023E-02      0.2266179126E-02

    ------------------------------------------------
       NWT REQUIRED            4 OUTER ITERATIONS 
       AND A TOTAL OF          7 INNER ITERATIONS.
    ------------------------------------------------

 NO OUTPUT CONTROL FOR STRESS PERIOD   35   TIME STEP   18
 
 SOLVING FOR HEAD 
                                                   Max.-Head-Change                         Max.-Flux-Residual
  Residual-Control   Outer-Iter.   Inner-Iter.     Column Row Layer    Maximum-Head-Change  Column Row Layer    Maximum-Flux-Residual          L2-NORM 
          0                 1           2             4    7     1       0.2872944335E-01       4    7    1         0.1514193573E+01      0.3029601850E+01
          0                 2           2             4    7     1      -0.2794608020E-02       4    7    1        -0.1514204860E+00      0.3035063884E+00
          0                 3           2             4    7     1       0.1903022827E-03       4    7    1         0.1059942793E-01      0.2146951770E-01
          0                 4           1             4   13     1      -0.2100103938E-04       4   13    1        -0.1235823117E-02      0.2272866015E-02

    ------------------------------------------------
       NWT REQUIRED            4 OUTER ITERATIONS 
       AND A TOTAL OF          7 INNER ITERATIONS.
    ------------------------------------------------

 NO OUTPUT CONTROL FOR STRESS PERIOD   35   TIME STEP   19
 
 SOLVING FOR HEAD 
                                                   Max.-Head-Change                         Max.-Flux-Residual
  Residual-Control   Outer-Iter.   Inner-Iter.     Column Row Layer    Maximum-Head-Change  Column Row Layer    Maximum-Flux-Residual          L2-NORM 
          0                 1           2             4    7     1       0.2832234727E-01       4    7    1         0.1492728636E+01      0.2987242700E+01
          0                 2           2             4    7     1      -0.2755005269E-02       4    7    1        -0.1492739668E+00      0.2991477717E+00
          0                 3           2             4    7     1       0.1876054856E-03       4    7    1         0.1044917174E-01      0.2117889338E-01
          0                 4           1             4   13     1      -0.2111086490E-04       4   13    1        -0.1242285177E-02      0.2278517179E-02

    ------------------------------------------------
       NWT REQUIRED            4 OUTER ITERATIONS 
       AND A TOTAL OF          7 INNER ITERATIONS.
    ------------------------------------------------

 NO OUTPUT CONTROL FOR STRESS PERIOD   35   TIME STEP   20
 
 SOLVING FOR HEAD 
                                                   Max.-Head-Change                         Max.-Flux-Residual
  Residual-Control   Outer-Iter.   Inner-Iter.     Column Row Layer    Maximum-Head-Change  Column Row Layer    Maximum-Flux-Residual          L2-NORM 
          0                 1           2             4    7     1       0.2792131923E-01       4    7    1         0.1471577510E+01      0.2945985024E+01
          0                 2           2             4    7     1      -0.2715998837E-02       4    7    1        -0.1471588288E+00      0.2951194581E+00
          0                 3           2             4    7     1       0.1849492958E-03       4    7    1         0.1030111225E-01      0.2091225932E-01
          0                 4           1             4   13     1      -0.2123899041E-04       4   13    1        -0.1249831646E-02      0.2286842101E-02

    ------------------------------------------------
       NWT REQUIRED            4 OUTER ITERATIONS 
       AND A TOTAL OF          7 INNER ITERATIONS.
    ------------------------------------------------

 NO OUTPUT CONTROL FOR STRESS PERIOD   35   TIME STEP   21
 
 SOLVING FOR HEAD 
                                                   Max.-Head-Change                         Max.-Flux-Residual
  Residual-Control   Outer-Iter.   Inner-Iter.     Column Row Layer    Maximum-Head-Change  Column Row Layer    Maximum-Flux-Residual          L2-NORM 
          0                 1           2             4    7     1       0.2752635324E-01       4    7    1         0.1450740675E+01      0.2905794287E+01
          0                 2           2             4    7     1      -0.2677579049E-02       4    7    1        -0.1450751203E+00      0.2910888614E+00
          0                 3           2             4    7     1       0.1823330546E-03       4    7    1         0.1015525285E-01      0.2064513518E-01
          0                 4           1             4   13     1      -0.2136647169E-04       4   13    1        -0.1257340387E-02      0.2292913930E-02

    ------------------------------------------------
       NWT REQUIRED            4 OUTER ITERATIONS 
       AND A TOTAL OF          7 INNER ITERATIONS.
    ------------------------------------------------

 NO OUTPUT CONTROL FOR STRESS PERIOD   35   TIME STEP   22
 
 SOLVING FOR HEAD 
                                                   Max.-Head-Change                         Max.-Flux-Residual
  Residual-Control   Outer-Iter.   Inner-Iter.     Column Row Layer    Maximum-Head-Change  Column Row Layer    Maximum-Flux-Residual          L2-NORM 
          0                 1           2             4    7     1       0.2713744512E-01       4    7    1         0.1430218308E+01      0.2866546203E+01
          0                 2           2             4    7     1      -0.2639748529E-02       4    7    1        -0.1430228587E+00      0.2871532706E+00
          0                 3           2             4    7     1       0.1797569397E-03       4    7    1         0.1001159472E-01      0.2038475059E-01
          0                 4           1             4   13     1      -0.2147447384E-04       4   13    1        -0.1263711259E-02      0.2298716587E-02

    ------------------------------------------------
       NWT REQUIRED            4 OUTER ITERATIONS 
       AND A TOTAL OF          7 INNER ITERATIONS.
    ------------------------------------------------

 NO OUTPUT CONTROL FOR STRESS PERIOD   35   TIME STEP   23
 
 SOLVING FOR HEAD 
                                                   Max.-Head-Change                         Max.-Flux-Residual
  Residual-Control   Outer-Iter.   Inner-Iter.     Column Row Layer    Maximum-Head-Change  Column Row Layer    Maximum-Flux-Residual          L2-NORM 
          0                 1           2             4    7     1       0.2675457412E-01       4    7    1         0.1410010029E+01      0.2828200718E+01
          0                 2           2             4    7     1      -0.2602505263E-02       4    7    1        -0.1410020063E+00      0.2833090201E+00
          0                 3           2             4    7     1       0.1772208150E-03       4    7    1         0.9870135207E-02      0.2013023690E-01
          0                 4           1             4   13     1      -0.2160293145E-04       4   13    1        -0.1271253381E-02      0.2307853686E-02

    ------------------------------------------------
       NWT REQUIRED            4 OUTER ITERATIONS 
       AND A TOTAL OF          7 INNER ITERATIONS.
    ------------------------------------------------

 NO OUTPUT CONTROL FOR STRESS PERIOD   35   TIME STEP   24
 
 SOLVING FOR HEAD 
                                                   Max.-Head-Change                         Max.-Flux-Residual
  Residual-Control   Outer-Iter.   Inner-Iter.     Column Row Layer    Maximum-Head-Change  Column Row Layer    Maximum-Flux-Residual          L2-NORM 
          0                 1           2             4    7     1       0.2637784963E-01       4    7    1         0.1390122072E+01      0.2790739007E+01
          0                 2           2             4    7     1      -0.2565859902E-02       4    7    1        -0.1390131865E+00      0.2795535068E+00
          0                 3           2             4    7     1       0.1747254037E-03       4    7    1         0.9730917975E-02      0.1988216769E-01
          0                 4           1             4   13     1      -0.2173325951E-04       4   13    1        -0.1279039077E-02      0.2313921649E-02

    ------------------------------------------------
       NWT REQUIRED            4 OUTER ITERATIONS 
       AND A TOTAL OF          7 INNER ITERATIONS.
    ------------------------------------------------

 NO OUTPUT CONTROL FOR STRESS PERIOD   35   TIME STEP   25
 
 SOLVING FOR HEAD 
                                                   Max.-Head-Change                         Max.-Flux-Residual
  Residual-Control   Outer-Iter.   Inner-Iter.     Column Row Layer    Maximum-Head-Change  Column Row Layer    Maximum-Flux-Residual          L2-NORM 
          0                 1           2             4    7     1       0.2600709254E-01       4    7    1         0.1370545490E+01      0.2754116150E+01
          0                 2           2             4    7     1      -0.2529795092E-02       4    7    1        -0.1370555045E+00      0.2758828032E+00
          0                 3           2             4    7     1       0.1722695274E-03       4    7    1         0.9593880411E-02      0.1964045202E-01
          0                 4           1             4   13     1      -0.2183438421E-04       4   13    1        -0.1284980402E-02      0.2321436096E-02

    ------------------------------------------------
       NWT REQUIRED            4 OUTER ITERATIONS 
       AND A TOTAL OF          7 INNER ITERATIONS.
    ------------------------------------------------

 NO OUTPUT CONTROL FOR STRESS PERIOD   35   TIME STEP   26
 
 SOLVING FOR HEAD 
                                                   Max.-Head-Change                         Max.-Flux-Residual
  Residual-Control   Outer-Iter.   Inner-Iter.     Column Row Layer    Maximum-Head-Change  Column Row Layer    Maximum-Flux-Residual          L2-NORM 
          0                 1           2             4    7     1       0.2564226491E-01       4    7    1         0.1351278301E+01      0.2718321471E+01
          0                 2           2             4    7     1      -0.2494306964E-02       4    7    1        -0.1351287622E+00      0.2722953481E+00
          0                 3           2             4    7     1       0.1698529210E-03       4    7    1         0.9459008623E-02      0.1940247170E-01
          0                 4           1             4   13     1      -0.2203124574E-04       4   13    1        -0.1296541360E-02      0.2333640193E-02

    ------------------------------------------------
       NWT REQUIRED            4 OUTER ITERATIONS 
       AND A TOTAL OF          7 INNER ITERATIONS.
    ------------------------------------------------

 NO OUTPUT CONTROL FOR STRESS PERIOD   35   TIME STEP   27
 
 SOLVING FOR HEAD 
                                                   Max.-Head-Change                         Max.-Flux-Residual
  Residual-Control   Outer-Iter.   Inner-Iter.     Column Row Layer    Maximum-Head-Change  Column Row Layer    Maximum-Flux-Residual          L2-NORM 
          0                 1           2             4    7     1       0.2528345449E-01       4    7    1         0.1332325861E+01      0.2683317174E+01
          0                 2           2             4    7     1      -0.2459404153E-02       4    7    1        -0.1332334951E+00      0.2687873595E+00
          0                 3           2             4    7     1       0.1674761723E-03       4    7    1         0.9326340079E-02      0.1917286553E-01
          0                 4           1             4   13     1      -0.2208361449E-04       4   13    1        -0.1299669278E-02      0.2336387969E-02

    ------------------------------------------------
       NWT REQUIRED            4 OUTER ITERATIONS 
       AND A TOTAL OF          7 INNER ITERATIONS.
    ------------------------------------------------

 NO OUTPUT CONTROL FOR STRESS PERIOD   35   TIME STEP   28
 
 SOLVING FOR HEAD 
                                                   Max.-Head-Change                         Max.-Flux-Residual
  Residual-Control   Outer-Iter.   Inner-Iter.     Column Row Layer    Maximum-Head-Change  Column Row Layer    Maximum-Flux-Residual          L2-NORM 
          0                 1           2             4    7     1       0.2493060150E-01       4    7    1         0.1313685401E+01      0.2649085619E+01
          0                 2           2             4    7     1      -0.2425080844E-02       4    7    1        -0.1313694267E+00      0.2653572785E+00
          0                 3           2             4    7     1       0.1651388858E-03       4    7    1         0.9195855472E-02      0.1894796060E-01
          0                 4           1             4   13     1      -0.2220490830E-04       4   13    1        -0.1306810424E-02      0.2344481918E-02

    ------------------------------------------------
       NWT REQUIRED            4 OUTER ITERATIONS 
       AND A TOTAL OF          7 INNER ITERATIONS.
    ------------------------------------------------

 NO OUTPUT CONTROL FOR STRESS PERIOD   35   TIME STEP   29
 
 SOLVING FOR HEAD 
                                                   Max.-Head-Change                         Max.-Flux-Residual
  Residual-Control   Outer-Iter.   Inner-Iter.     Column Row Layer    Maximum-Head-Change  Column Row Layer    Maximum-Flux-Residual          L2-NORM 
          0                 1           2             4    7     1       0.2458351255E-01       4    7    1         0.1295346512E+01      0.2615603289E+01
          0                 2           2             4    7     1      -0.2391318225E-02       4    7    1        -0.1295355155E+00      0.2620026141E+00
          0                 3           2             4    7     1       0.1628397793E-03       4    7    1         0.9067481816E-02      0.1872854589E-01
          0                 4           1             4   13     1      -0.2234163172E-04       4   13    1        -0.1314877622E-02      0.2352798073E-02

    ------------------------------------------------
       NWT REQUIRED            4 OUTER ITERATIONS 
       AND A TOTAL OF          7 INNER ITERATIONS.
    ------------------------------------------------

 NO OUTPUT CONTROL FOR STRESS PERIOD   35   TIME STEP   30



 STREAM LISTING     PERIOD     35   STEP       30

 LAYER ROW COL. STREAM  RCH.  FLOW INTO     FLOW TO   FLOW OUT OF   OVRLND.     DIRECT     STREAM       STREAM     STREAM     STREAM   STREAMBED  STREAMBED
                SEG.NO.  NO.  STRM. RCH.    AQUIFER    STRM. RCH.    RUNOFF     PRECIP       ET          HEAD       DEPTH      WIDTH   CONDCTNC.   GRADIENT

   1    1    1     1     1    1.3125E+01  1.7336E-01   1.2951E+01  0.000E+00  0.000E+00  0.000E+00  1.09402E+03  9.718E-01  9.699E+00  4.365E-02  1.324E+00
   1    2    2     1     2    1.2951E+01  2.6707E-01   1.2684E+01  0.000E+00  0.000E+00  0.000E+00  1.08903E+03  9.671E-01  9.617E+00  6.732E-02  1.322E+00
   1    3    3     1     3    1.2684E+01  2.2640E-01   1.2458E+01  0.000E+00  0.000E+00  0.000E+00  1.08338E+03  9.616E-01  9.525E+00  5.715E-02  1.321E+00
   1    3    4     1     4    1.2458E+01  2.0736E-01   1.2250E+01  0.000E+00  0.000E+00  0.000E+00  1.07836E+03  9.568E-01  9.443E+00  5.241E-02  1.319E+00
   1    4    5     2     1    1.0250E+01  2.8870E-01   9.9617E+00  0.000E+00  0.000E+00  0.000E+00  1.07264E+03  7.013E-01  1.200E+01  7.800E-02  1.234E+00
   1    5    6     2     2    9.9617E+00  2.2144E-01   9.7403E+00  0.000E+00  0.000E+00  0.000E+00  1.06720E+03  6.906E-01  1.200E+01  6.000E-02  1.230E+00
   1    6    6     2     3    9.7403E+00  2.2088E-01   9.5194E+00  0.000E+00  0.000E+00  0.000E+00  1.06247E+03  6.813E-01  1.200E+01  6.000E-02  1.227E+00
   1    7    6     2     4    9.5194E+00  2.2031E-01   9.2991E+00  0.000E+00  0.000E+00  0.000E+00  1.05775E+03  6.719E-01  1.200E+01  6.000E-02  1.224E+00
   1    8    6     2     5    9.2991E+00  2.1974E-01   9.0793E+00  0.000E+00  0.000E+00  0.000E+00  1.05302E+03  6.624E-01  1.200E+01  6.000E-02  1.221E+00
   1    3    5     3     1    2.0000E+00  2.8252E-01   1.7175E+00  0.000E+00  0.000E+00  0.000E+00  1.07555E+03  1.909E+00  9.636E+00  7.227E-02  1.955E+00
   1    3    6     3     2    1.7175E+00  2.4905E-01   1.4684E+00  0.000E+00  0.000E+00  0.000E+00  1.07264E+03  1.727E+00  8.909E+00  6.682E-02  1.864E+00
   1    3    7     3     3    1.4684E+00  1.9718E-01   1.2712E+00  0.000E+00  0.000E+00  0.000E+00  1.06987E+03  1.555E+00  8.218E+00  5.547E-02  1.777E+00
   1    4    8     3     4    1.2712E+00  2.2567E-01   1.0456E+00  0.000E+00  0.000E+00  0.000E+00  1.06682E+03  1.364E+00  7.455E+00  6.709E-02  1.682E+00
   1    5    8     3     5    1.0456E+00  1.5790E-01   8.8768E-01  0.000E+00  0.000E+00  0.000E+00  1.06362E+03  1.164E+00  6.655E+00  4.991E-02  1.582E+00
   1    6    8     3     6    8.8768E-01  5.5980E-02   8.3170E-01  0.000E+00  0.000E+00  0.000E+00  1.06158E+03  1.036E+00  6.145E+00  1.844E-02  1.518E+00
   1    5   10     4     1    1.0000E+01  9.0919E-02   9.9091E+00  0.000E+00  0.000E+00  0.000E+00  1.07836E+03  6.368E-01  1.000E+01  2.500E-02  1.212E+00
   1    5    9     4     2    9.9091E+00  1.8158E-01   9.7275E+00  0.000E+00  0.000E+00  0.000E+00  1.07154E+03  6.315E-01  1.000E+01  5.000E-02  1.211E+00
   1    6    8     4     3    9.7275E+00  1.2689E-01   9.6006E+00  0.000E+00  0.000E+00  0.000E+00  1.06381E+03  6.256E-01  1.000E+01  3.500E-02  1.209E+00
   1    6    8     5     1    1.0432E+01  2.2686E-01   1.0205E+01  0.000E+00  0.000E+00  0.000E+00  1.05868E+03  6.790E-01  1.542E+01  6.166E-02  1.226E+00
   1    7    7     5     2    1.0205E+01  2.7894E-01   9.9265E+00  0.000E+00  0.000E+00  0.000E+00  1.05417E+03  6.732E-01  1.519E+01  7.594E-02  1.224E+00
   1    8    7     5     3    9.9265E+00  1.9221E-01   9.7343E+00  0.000E+00  0.000E+00  0.000E+00  1.04992E+03  6.676E-01  1.497E+01  5.241E-02  1.223E+00
   1    8    6     5     4    9.7343E+00  1.3577E-01   9.5985E+00  0.000E+00  0.000E+00  0.000E+00  1.04691E+03  6.637E-01  1.482E+01  3.706E-02  1.221E+00
   1    9    6     6     1    1.8134E+01  2.4025E-01   1.7894E+01  0.000E+00  0.000E+00  0.000E+00  1.04373E+03  1.004E+00  1.200E+01  6.000E-02  1.335E+00
   1   10    7     6     2    1.7894E+01  2.3977E-01   1.7654E+01  0.000E+00  0.000E+00  0.000E+00  1.03918E+03  9.961E-01  1.200E+01  6.000E-02  1.332E+00
   1   11    7     6     3    1.7654E+01  2.3928E-01   1.7415E+01  0.000E+00  0.000E+00  0.000E+00  1.03462E+03  9.880E-01  1.200E+01  6.000E-02  1.329E+00
   1   12    7     6     4    1.7415E+01  2.3880E-01   1.7176E+01  0.000E+00  0.000E+00  0.000E+00  1.03007E+03  9.799E-01  1.200E+01  6.000E-02  1.327E+00
   1   13    7     6     5    1.7176E+01  5.4307E-03   1.7171E+01  0.000E+00  0.000E+00  0.000E+00  1.02688E+03  9.758E-01  1.200E+01  2.400E-02  7.543E-02
   1   14    9     7     1    1.5000E+02  1.3830E+00   1.4862E+02  0.000E+00  0.000E+00  0.000E+00  1.03987E+03  2.288E+00  5.529E+01  5.593E-01  8.243E-01
   1   13    8     7     2    1.4862E+02  1.9738E+00   1.4664E+02  0.000E+00  0.000E+00  0.000E+00  1.03478E+03  2.279E+00  5.525E+01  6.147E-01  1.070E+00
   1   13    7     7     3    1.4664E+02  1.6917E+00   1.4495E+02  0.000E+00  0.000E+00  0.000E+00  1.02969E+03  2.269E+00  5.521E+01  5.584E-01  1.010E+00
   1   13    6     8     1    1.6212E+02  1.0906E+00   1.6103E+02  0.000E+00  0.000E+00  0.000E+00  1.02477E+03  2.897E+00  4.200E+01  4.280E-01  8.494E-01
   1   13    5     8     2    1.6103E+02  3.3321E-01   1.6070E+02  0.000E+00  0.000E+00  0.000E+00  1.01852E+03  2.892E+00  4.193E+01  4.273E-01  2.599E-01
   1   13    4     8     3    1.6070E+02 -1.9021E+00   1.6260E+02  0.000E+00  0.000E+00  0.000E+00  1.01227E+03  2.897E+00  4.201E+01  4.281E+00 -1.481E-01
   1   13    3     8     4    1.6260E+02 -3.3722E+00   1.6597E+02  0.000E+00  0.000E+00  0.000E+00  1.00604E+03  2.915E+00  4.226E+01  4.307E+00 -2.610E-01
   1   13    2     8     5    1.6597E+02 -2.4922E+00   1.6846E+02  0.000E+00  0.000E+00  0.000E+00  9.99809E+02  2.934E+00  4.255E+01  4.336E+00 -1.916E-01
   1   13    1     8     6    1.6846E+02 -1.9423E+00   1.7041E+02  0.000E+00  0.000E+00  0.000E+00  9.94824E+02  2.949E+00  4.276E+01  2.614E+00 -2.477E-01
   1    8    6     9     1    5.4380E-01  0.0000E+00   5.4380E-01  0.000E+00  0.000E+00  0.000E+00  1.07913E+03  3.812E-01  4.000E+00  0.000E+00  1.127E+00
   1    8    5     9     2    5.4380E-01  0.0000E+00   5.4380E-01  0.000E+00  0.000E+00  0.000E+00  1.07863E+03  3.812E-01  4.000E+00  0.000E+00  1.127E+00





UNSATURATED ZONE PACKAGE VOLUMETRIC BUDGET FOR  TIME STEP    30 STRESS PERIOD   35
  ------------------------------------------------------------------------------



     CUMULATIVE VOLUMES      L**3       RATES FOR THIS TIME STEP      L**3/T
     ------------------                 ------------------------

           IN:                                      IN:
           ---                                      ---
        INFILTRATION =  1585371023.0339          INFILTRATION =           4.9513

          OUT:                                     OUT:
          ----                                     ----
              UZF ET =  1487981624.4415                UZF ET =           4.2144
        UZF RECHARGE =      717884.2805          UZF RECHARGE =       0.0000E+00

            IN - OUT =    96671514.3119              IN - OUT =           0.7369

          STORAGE:                                 STORAGE:
          --------                                 --------
      STORAGE CHANGE =    96671493.1814        STORAGE CHANGE =           0.7369

 PERCENT DISCREPANCY IS DIFFERENCE BETWEEN IN-OUT MINUS CHANGE IN STORAGE
 DIVIDED BY THE AVERAGE OF IN AND OUT TIMES 100

 PERCENT DISCREPANCY =           0.00     PERCENT DISCREPANCY =           0.00






1
  VOLUMETRIC BUDGET FOR AGRICULTURAL FIELDS AT  END OF TIME STEP   30, STRESS PERIOD  35
  ------------------------------------------------------------------------------

     CUMULATIVE VOLUMES      L**3       RATES FOR THIS TIME STEP      L**3/T
     ------------------                 ------------------------

           IN:                                      IN:
           ---                                      ---
               AG WELLS  =   593838720.0000                 AG WELLS  =           0.0000
      DIVERSION SEGMENTS =   597329216.0000        DIVERSION SEGMENTS =           0.5438
           GW IRRIGATION =           0.0000             GW IRRIGATION =           0.0000
           SW IRRIGATION =           0.0000             SW IRRIGATION =           0.0000
        SYSTEM LOSSES GW =           0.0000          SYSTEM LOSSES GW =           0.0000
        SYSTEM LOSSES SW =           0.0000          SYSTEM LOSSES SW =           0.0000

                TOTAL IN =  1191168000.0000                  TOTAL IN =           0.5438

          OUT:                                     OUT:
          ----                                     ----
               AG WELLS  =           0.0000                 AG WELLS  =           0.0000
      DIVERSION SEGMENTS =           0.0000        DIVERSION SEGMENTS =           0.0000
           GW IRRIGATION =   593838720.0000             GW IRRIGATION =           0.0000
           SW IRRIGATION =   597340736.0000             SW IRRIGATION =           0.5438
        SYSTEM LOSSES GW =           0.0000          SYSTEM LOSSES GW =           0.0000
        SYSTEM LOSSES SW =           0.0000          SYSTEM LOSSES SW =           0.0000

               TOTAL OUT =  1191179520.0000                 TOTAL OUT =           0.5438

                IN - OUT =      -11520.0000                  IN - OUT =      -1.0848E-05

     PERCENT DISCREPANCY =          -0.00         PERCENT DISCREPANCY =          -0.00



1
  VOLUMETRIC BUDGET FOR ENTIRE MODEL AT END OF TIME STEP   30, STRESS PERIOD  35
  ------------------------------------------------------------------------------

     CUMULATIVE VOLUMES      L**3       RATES FOR THIS TIME STEP      L**3/T
     ------------------                 ------------------------

           IN:                                      IN:
           ---                                      ---
             STORAGE     =   849257088.0000               STORAGE     =           5.2711
       CONSTANT HEAD     =           0.0000         CONSTANT HEAD     =           0.0000
     HEAD DEP BOUNDS     =    25800572.0000       HEAD DEP BOUNDS     =           0.2890
      STREAM LEAKAGE     =  1057143744.0000        STREAM LEAKAGE     =          11.8825
        UZF RECHARGE     =      717884.3750          UZF RECHARGE     =           0.0000
               GW ET     =           0.0000                 GW ET     =           0.0000
     SURFACE LEAKAGE     =           0.0000       SURFACE LEAKAGE     =           0.0000
           AG WELLS      =           0.0000             AG WELLS      =           0.0000

                TOTAL IN =  1932919296.0000                  TOTAL IN =          17.4427

          OUT:                                     OUT:
          ----                                     ----
             STORAGE     =   405992928.0000               STORAGE     =           7.4459
       CONSTANT HEAD     =           0.0000         CONSTANT HEAD     =           0.0000
     HEAD DEP BOUNDS     =    25765120.0000       HEAD DEP BOUNDS     =           0.2875
      STREAM LEAKAGE     =   907272512.0000        STREAM LEAKAGE     =           9.7088
        UZF RECHARGE     =           0.0000          UZF RECHARGE     =           0.0000
               GW ET     =           0.0000                 GW ET     =           0.0000
     SURFACE LEAKAGE     =           0.0000       SURFACE LEAKAGE     =           0.0000
           AG WELLS      =   593838720.0000             AG WELLS      =           0.0000

               TOTAL OUT =  1932869248.0000                 TOTAL OUT =          17.4423

                IN - OUT =       50048.0000                  IN - OUT =       3.7384E-04

     PERCENT DISCREPANCY =           0.00         PERCENT DISCREPANCY =           0.00






         TIME SUMMARY AT END OF TIME STEP   30 IN STRESS PERIOD   35
                    SECONDS     MINUTES      HOURS       DAYS        YEARS
                    -----------------------------------------------------------
   TIME STEP LENGTH  87667.      1461.1      24.352      1.0147     2.77799E-03
 STRESS PERIOD TIME 2.63000E+06  43833.      730.56      30.440     8.33397E-02
         TOTAL TIME 8.95061E+07 1.49177E+06  24863.      1036.0      2.8363    
1
1
                            STRESS PERIOD NO.   36, LENGTH =   2630000.    
                            -----------------------------------------------

                              NUMBER OF TIME STEPS =    30

                               MULTIPLIER FOR DELT =     1.000

                            INITIAL TIME STEP SIZE =   87666.66    

 REUSING NON-PARAMETER GHB CELLS FROM LAST STRESS PERIOD

      2 GHB CELLS

 REUSING STREAM SEGMENT DATA FROM LAST STRESS PERIOD



            AREAL INFILTRATION RATE
 READING ON UNIT   19 WITH FORMAT: (10F4.0)            

            1           2           3           4           5           6           7           8           9          10
 ........................................................................................................................
   1   1.2000E-09   0.000       0.000       0.000       0.000       0.000       0.000       0.000       0.000       0.000    
   2   2.1000E-09  2.0000E-09  8.0000E-10  8.5000E-09   0.000       0.000       0.000       0.000       0.000       0.000    
   3   5.0000E-10  1.1000E-09  8.8000E-09  5.5000E-09   0.000       0.000       0.000       0.000       0.000       0.000    
   4   8.5000E-09  1.1000E-09  1.1000E-09  1.1000E-09  2.0000E-09   0.000       0.000       0.000       0.000       0.000    
   5   8.5000E-09  1.1000E-09  1.1000E-09  1.1000E-09  1.1000E-09   0.000       0.000       0.000       0.000       0.000    
   6   8.5000E-09  5.2000E-09  2.1000E-09  1.1000E-09  1.5000E-09   0.000       0.000       0.000       0.000       0.000    
   7   8.5000E-09  5.2000E-09  2.1000E-09  1.2000E-09  2.0000E-09   0.000       0.000       0.000       0.000       0.000    
   8   5.0000E-10  5.2000E-09  2.1000E-09  1.2000E-09  5.0000E-09   0.000       0.000       0.000       0.000       0.000    
   9   5.0000E-10  5.2000E-09  2.1000E-09  1.2000E-09  5.0000E-09   0.000       0.000       0.000       0.000       0.000    
  10   5.0000E-10  5.2000E-09  2.1000E-09  1.2000E-09  5.8000E-09   0.000       0.000       0.000       0.000       0.000    
  11   1.0000E-10  1.1000E-09  1.1000E-09  1.2000E-09  5.0000E-09   0.000       0.000       0.000       0.000       0.000    
  12   1.1000E-09  1.1000E-09  1.1000E-09  1.1000E-09  2.0000E-09   0.000       0.000       0.000       0.000       0.000    
  13   1.1000E-09  2.2000E-09  2.2000E-09  2.1000E-09  1.0000E-09   0.000       0.000       0.000       0.000       0.000    
  14   2.0000E-10  5.5000E-09  5.5000E-09  5.2000E-09  1.0000E-09   0.000       0.000       0.000       0.000       0.000    
  15    0.000      8.8000E-09  8.8000E-09   0.000       0.000       0.000       0.000       0.000       0.000       0.000    

                  ET RATE =  5.000000E-10

 USING ET EXTINCTION DEPTH FROM PREVIOUS STRESS PERIOD. CURRENT PERIOD IS:      36

 USING EXTINCTION WATER CONTENT FROM PREVIOUS STRESS PERIOD. CURRENT PERIOD IS:      36

 USING AIR ENTRY PRESSURE FROM PREVIOUS STRESS PERIOD. CURRENT PERIOD IS:      36

 USING ROOT PRESSURE HEAD FROM PREVIOUS STRESS PERIOD. CURRENT PERIOD IS:      36

 USING ROOT ACTIVITY FROM PREVIOUS STRESS PERIOD. CURRENT PERIOD IS:      36

 PROCESSING AG STRESS PERIOD DATA

 READING AG STRESS PERIOD DATA

 READING IRRIGATION SEGMENT

 READING IRRIGATION WELL

 READING SUPPLEMENTAL WELL

 END PROCESSING AG STRESS PERIOD DATA OPTIONS
 
 SOLVING FOR HEAD 
                                                   Max.-Head-Change                         Max.-Flux-Residual
  Residual-Control   Outer-Iter.   Inner-Iter.     Column Row Layer    Maximum-Head-Change  Column Row Layer    Maximum-Flux-Residual          L2-NORM 
          0                 1           2             4    7     1       0.2424225919E-01       4    7    1         0.1277313790E+01      0.2582838293E+01
          0                 2           2             4    7     1      -0.2358123254E-02       4    7    1        -0.1277322216E+00      0.2582831075E+00
          0                 3           2             4    7     1       0.1605793291E-03       4    7    1         0.8941251395E-02      0.1807967167E-01
          0                 4           1             4    7     1      -0.6389602428E-05       4    7    1        -0.3656977283E-03      0.7394500504E-03

    ------------------------------------------------
       NWT REQUIRED            4 OUTER ITERATIONS 
       AND A TOTAL OF          7 INNER ITERATIONS.
    ------------------------------------------------

 NO OUTPUT CONTROL FOR STRESS PERIOD   36   TIME STEP    1
 
 SOLVING FOR HEAD 
                                                   Max.-Head-Change                         Max.-Flux-Residual
  Residual-Control   Outer-Iter.   Inner-Iter.     Column Row Layer    Maximum-Head-Change  Column Row Layer    Maximum-Flux-Residual          L2-NORM 
          0                 1           2             4    7     1       0.2390673509E-01       4    7    1         0.1259583633E+01      0.2556802929E+01
          0                 2           2             4    7     1      -0.2325485593E-02       4    7    1        -0.1259591848E+00      0.2556736286E+00
          0                 3           2             4    7     1       0.1583568288E-03       4    7    1         0.8817138973E-02      0.1789647249E-01
          0                 4           1             4    7     1      -0.6301166932E-05       4    7    1        -0.3606215205E-03      0.7319334953E-03

    ------------------------------------------------
       NWT REQUIRED            4 OUTER ITERATIONS 
       AND A TOTAL OF          7 INNER ITERATIONS.
    ------------------------------------------------

 NO OUTPUT CONTROL FOR STRESS PERIOD   36   TIME STEP    2
 
 SOLVING FOR HEAD 
                                                   Max.-Head-Change                         Max.-Flux-Residual
  Residual-Control   Outer-Iter.   Inner-Iter.     Column Row Layer    Maximum-Head-Change  Column Row Layer    Maximum-Flux-Residual          L2-NORM 
          0                 1           2             4    7     1       0.2357686851E-01       4    7    1         0.1242150527E+01      0.2525955432E+01
          0                 2           2             4    7     1      -0.2293398262E-02       4    7    1        -0.1242158535E+00      0.2525882093E+00
          0                 3           2             4    7     1       0.1561718034E-03       4    7    1         0.8695105916E-02      0.1768049089E-01
          0                 4           1             4    7     1      -0.6214222913E-05       4    7    1        -0.3556303677E-03      0.7231218356E-03

    ------------------------------------------------
       NWT REQUIRED            4 OUTER ITERATIONS 
       AND A TOTAL OF          7 INNER ITERATIONS.
    ------------------------------------------------

 NO OUTPUT CONTROL FOR STRESS PERIOD   36   TIME STEP    3
 
 SOLVING FOR HEAD 
                                                   Max.-Head-Change                         Max.-Flux-Residual
  Residual-Control   Outer-Iter.   Inner-Iter.     Column Row Layer    Maximum-Head-Change  Column Row Layer    Maximum-Flux-Residual          L2-NORM 
          0                 1           2             4    7     1       0.2325258391E-01       4    7    1         0.1225010754E+01      0.2494948477E+01
          0                 2           2             4    7     1      -0.2261853912E-02       4    7    1        -0.1225018558E+00      0.2494884802E+00
          0                 3           2             4    7     1       0.1540237531E-03       4    7    1         0.8575126228E-02      0.1746353247E-01
          0                 4           1             4    7     1      -0.6128749765E-05       4    7    1        -0.3507231841E-03      0.7141898139E-03

    ------------------------------------------------
       NWT REQUIRED            4 OUTER ITERATIONS 
       AND A TOTAL OF          7 INNER ITERATIONS.
    ------------------------------------------------

 NO OUTPUT CONTROL FOR STRESS PERIOD   36   TIME STEP    4
 
 SOLVING FOR HEAD 
                                                   Max.-Head-Change                         Max.-Flux-Residual
  Residual-Control   Outer-Iter.   Inner-Iter.     Column Row Layer    Maximum-Head-Change  Column Row Layer    Maximum-Flux-Residual          L2-NORM 
          0                 1           2             4    7     1       0.2293394072E-01       4    7    1         0.1208167712E+01      0.2464613754E+01
          0                 2           2             4    7     1      -0.2230858325E-02       4    7    1        -0.1208175318E+00      0.2464558040E+00
          0                 3           2             4    7     1       0.1519130713E-03       4    7    1         0.8457223669E-02      0.1725132817E-01
          0                 4           1             4    7     1      -0.6044763720E-05       4    7    1        -0.3459009608E-03      0.7055604606E-03

    ------------------------------------------------
       NWT REQUIRED            4 OUTER ITERATIONS 
       AND A TOTAL OF          7 INNER ITERATIONS.
    ------------------------------------------------

 NO OUTPUT CONTROL FOR STRESS PERIOD   36   TIME STEP    5
 
 SOLVING FOR HEAD 
                                                   Max.-Head-Change                         Max.-Flux-Residual
  Residual-Control   Outer-Iter.   Inner-Iter.     Column Row Layer    Maximum-Head-Change  Column Row Layer    Maximum-Flux-Residual          L2-NORM 
          0                 1           2             4    7     1       0.2262058770E-01       4    7    1         0.1191602538E+01      0.2434926169E+01
          0                 2           2             4    7     1      -0.2200377333E-02       4    7    1        -0.1191609950E+00      0.2434877396E+00
          0                 3           2             4    7     1       0.1498374318E-03       4    7    1         0.8341266246E-02      0.1704364703E-01
          0                 4           1             4    7     1      -0.5962171986E-05       4    7    1        -0.3411582979E-03      0.6970470567E-03

    ------------------------------------------------
       NWT REQUIRED            4 OUTER ITERATIONS 
       AND A TOTAL OF          7 INNER ITERATIONS.
    ------------------------------------------------

 NO OUTPUT CONTROL FOR STRESS PERIOD   36   TIME STEP    6
 
 SOLVING FOR HEAD 
                                                   Max.-Head-Change                         Max.-Flux-Residual
  Residual-Control   Outer-Iter.   Inner-Iter.     Column Row Layer    Maximum-Head-Change  Column Row Layer    Maximum-Flux-Residual          L2-NORM 
          0                 1           2             4    7     1       0.2231271876E-01       4    7    1         0.1175326280E+01      0.2405859224E+01
          0                 2           2             4    7     1      -0.2170430019E-02       4    7    1        -0.1175333503E+00      0.2405955287E+00
          0                 3           2             4    7     1       0.1477981333E-03       4    7    1         0.8227331237E-02      0.1684123431E-01
          0                 4           1             4    7     1      -0.5881026484E-05       4    7    1        -0.3364983427E-03      0.6887788619E-03

    ------------------------------------------------
       NWT REQUIRED            4 OUTER ITERATIONS 
       AND A TOTAL OF          7 INNER ITERATIONS.
    ------------------------------------------------

 NO OUTPUT CONTROL FOR STRESS PERIOD   36   TIME STEP    7
 
 SOLVING FOR HEAD 
                                                   Max.-Head-Change                         Max.-Flux-Residual
  Residual-Control   Outer-Iter.   Inner-Iter.     Column Row Layer    Maximum-Head-Change  Column Row Layer    Maximum-Flux-Residual          L2-NORM 
          0                 1           2             4    7     1       0.2201024549E-01       4    7    1         0.1159334350E+01      0.2377395888E+01
          0                 2           2             4    7     1      -0.2141007125E-02       4    7    1        -0.1159341388E+00      0.2377358476E+00
          0                 3           2             4    7     1       0.1457945458E-03       4    7    1         0.8115386552E-02      0.1664111187E-01
          0                 4           1             4    7     1      -0.5801302002E-05       4    7    1        -0.3319198031E-03      0.6805934973E-03

    ------------------------------------------------
       NWT REQUIRED            4 OUTER ITERATIONS 
       AND A TOTAL OF          7 INNER ITERATIONS.
    ------------------------------------------------

 NO OUTPUT CONTROL FOR STRESS PERIOD   36   TIME STEP    8
 
 SOLVING FOR HEAD 
                                                   Max.-Head-Change                         Max.-Flux-Residual
  Residual-Control   Outer-Iter.   Inner-Iter.     Column Row Layer    Maximum-Head-Change  Column Row Layer    Maximum-Flux-Residual          L2-NORM 
          0                 1           2             4    7     1       0.2171281335E-01       4    7    1         0.1143607569E+01      0.2349487339E+01
          0                 2           2             4    7     1      -0.2112074821E-02       4    7    1        -0.1143614427E+00      0.2349454756E+00
          0                 3           2             4    7     1       0.1438243658E-03       4    7    1         0.8005297950E-02      0.1644582125E-01
          0                 4           1             4    7     1      -0.5722906784E-05       4    7    1        -0.3274171677E-03      0.6726173464E-03

    ------------------------------------------------
       NWT REQUIRED            4 OUTER ITERATIONS 
       AND A TOTAL OF          7 INNER ITERATIONS.
    ------------------------------------------------

 NO OUTPUT CONTROL FOR STRESS PERIOD   36   TIME STEP    9
 
 SOLVING FOR HEAD 
                                                   Max.-Head-Change                         Max.-Flux-Residual
  Residual-Control   Outer-Iter.   Inner-Iter.     Column Row Layer    Maximum-Head-Change  Column Row Layer    Maximum-Flux-Residual          L2-NORM 
          0                 1           2             4    7     1       0.2142075000E-01       4    7    1         0.1128164099E+01      0.2322157704E+01
          0                 2           2             4    7     1      -0.2083664761E-02       4    7    1        -0.1128170781E+00      0.2322129274E+00
          0                 3           2             4    7     1       0.1418897489E-03       4    7    1         0.7897192552E-02      0.1625460572E-01
          0                 4           1             4    7     1      -0.5645926599E-05       4    7    1        -0.3229956619E-03      0.6647774731E-03

    ------------------------------------------------
       NWT REQUIRED            4 OUTER ITERATIONS 
       AND A TOTAL OF          7 INNER ITERATIONS.
    ------------------------------------------------

 NO OUTPUT CONTROL FOR STRESS PERIOD   36   TIME STEP   10
 
 SOLVING FOR HEAD 
                                                   Max.-Head-Change                         Max.-Flux-Residual
  Residual-Control   Outer-Iter.   Inner-Iter.     Column Row Layer    Maximum-Head-Change  Column Row Layer    Maximum-Flux-Residual          L2-NORM 
          0                 1           2             4    7     1       0.2113368753E-01       4    7    1         0.1112984359E+01      0.2295370894E+01
          0                 2           2             4    7     1      -0.2055741156E-02       4    7    1        -0.1112990870E+00      0.2295345953E+00
          0                 3           2             4    7     1       0.1399882570E-03       4    7    1         0.7790933288E-02      0.1606715017E-01
          0                 4           1             4    7     1      -0.5570264049E-05       4    7    1        -0.3186496333E-03      0.6571226384E-03

    ------------------------------------------------
       NWT REQUIRED            4 OUTER ITERATIONS 
       AND A TOTAL OF          7 INNER ITERATIONS.
    ------------------------------------------------

 NO OUTPUT CONTROL FOR STRESS PERIOD   36   TIME STEP   11
 
 SOLVING FOR HEAD 
                                                   Max.-Head-Change                         Max.-Flux-Residual
  Residual-Control   Outer-Iter.   Inner-Iter.     Column Row Layer    Maximum-Head-Change  Column Row Layer    Maximum-Flux-Residual          L2-NORM 
          0                 1           2             4    7     1       0.2085167969E-01       4    7    1         0.1098071223E+01      0.2269126206E+01
          0                 2           2             4    7     1      -0.2028309236E-02       4    7    1        -0.1098077567E+00      0.2269104240E+00
          0                 3           2             4    7     1       0.1381202474E-03       4    7    1         0.7686540282E-02      0.1588349006E-01
          0                 4           1             4    7     1      -0.5495934216E-05       4    7    1        -0.3143799554E-03      0.6496346114E-03

    ------------------------------------------------
       NWT REQUIRED            4 OUTER ITERATIONS 
       AND A TOTAL OF          7 INNER ITERATIONS.
    ------------------------------------------------

 NO OUTPUT CONTROL FOR STRESS PERIOD   36   TIME STEP   12
 
 SOLVING FOR HEAD 
                                                   Max.-Head-Change                         Max.-Flux-Residual
  Residual-Control   Outer-Iter.   Inner-Iter.     Column Row Layer    Maximum-Head-Change  Column Row Layer    Maximum-Flux-Residual          L2-NORM 
          0                 1           2             4    7     1       0.2057449987E-01       4    7    1         0.1083412845E+01      0.2243394268E+01
          0                 2           2             4    7     1      -0.2001346955E-02       4    7    1        -0.1083419025E+00      0.2243374739E+00
          0                 3           2             4    7     1       0.1362842185E-03       4    7    1         0.7583930610E-02      0.1570342582E-01
          0                 4           1             4    7     1      -0.5422877004E-05       4    7    1        -0.3101832122E-03      0.6422625474E-03

    ------------------------------------------------
       NWT REQUIRED            4 OUTER ITERATIONS 
       AND A TOTAL OF          7 INNER ITERATIONS.
    ------------------------------------------------

 NO OUTPUT CONTROL FOR STRESS PERIOD   36   TIME STEP   13
 
 SOLVING FOR HEAD 
                                                   Max.-Head-Change                         Max.-Flux-Residual
  Residual-Control   Outer-Iter.   Inner-Iter.     Column Row Layer    Maximum-Head-Change  Column Row Layer    Maximum-Flux-Residual          L2-NORM 
          0                 1           2             4    7     1       0.2030233515E-01       4    7    1         0.1069019426E+01      0.2218174760E+01
          0                 2           2             4    7     1      -0.1974872515E-02       4    7    1        -0.1069025447E+00      0.2218157406E+00
          0                 3           2             4    7     1       0.1344814101E-03       4    7    1         0.7483175665E-02      0.1552689337E-01
          0                 4           1             4    7     1      -0.5351141802E-05       4    7    1        -0.3060623608E-03      0.6350364176E-03

    ------------------------------------------------
       NWT REQUIRED            4 OUTER ITERATIONS 
       AND A TOTAL OF          7 INNER ITERATIONS.
    ------------------------------------------------

 NO OUTPUT CONTROL FOR STRESS PERIOD   36   TIME STEP   14
 
 SOLVING FOR HEAD 
                                                   Max.-Head-Change                         Max.-Flux-Residual
  Residual-Control   Outer-Iter.   Inner-Iter.     Column Row Layer    Maximum-Head-Change  Column Row Layer    Maximum-Flux-Residual          L2-NORM 
          0                 1           2             4    7     1       0.2003482017E-01       4    7    1         0.1054871398E+01      0.2193437730E+01
          0                 2           2             4    7     1      -0.1948850373E-02       4    7    1        -0.1054877264E+00      0.2193422266E+00
          0                 3           2             4    7     1       0.1327094008E-03       4    7    1         0.7384138505E-02      0.1535377073E-01
          0                 4           1             4    7     1      -0.5280631673E-05       4    7    1        -0.3020117106E-03      0.6279630639E-03

    ------------------------------------------------
       NWT REQUIRED            4 OUTER ITERATIONS 
       AND A TOTAL OF          7 INNER ITERATIONS.
    ------------------------------------------------

 NO OUTPUT CONTROL FOR STRESS PERIOD   36   TIME STEP   15
 
 SOLVING FOR HEAD 
                                                   Max.-Head-Change                         Max.-Flux-Residual
  Residual-Control   Outer-Iter.   Inner-Iter.     Column Row Layer    Maximum-Head-Change  Column Row Layer    Maximum-Flux-Residual          L2-NORM 
          0                 1           2             4    7     1       0.1977200575E-01       4    7    1         0.1040971768E+01      0.2169178157E+01
          0                 2           2             4    7     1      -0.1923285472E-02       4    7    1        -0.1040977484E+00      0.2169164749E+00
          0                 3           2             4    7     1       0.1309685280E-03       4    7    1         0.7286840133E-02      0.1518395660E-01
          0                 4           1             4    7     1      -0.5211360547E-05       4    7    1        -0.2980322060E-03      0.6210109495E-03

    ------------------------------------------------
       NWT REQUIRED            4 OUTER ITERATIONS 
       AND A TOTAL OF          7 INNER ITERATIONS.
    ------------------------------------------------

 NO OUTPUT CONTROL FOR STRESS PERIOD   36   TIME STEP   16
 
 SOLVING FOR HEAD 
                                                   Max.-Head-Change                         Max.-Flux-Residual
  Residual-Control   Outer-Iter.   Inner-Iter.     Column Row Layer    Maximum-Head-Change  Column Row Layer    Maximum-Flux-Residual          L2-NORM 
          0                 1           2             4    7     1       0.1951394184E-01       4    7    1         0.1027323173E+01      0.2145389650E+01
          0                 2           2             4    7     1      -0.1898182675E-02       4    7    1        -0.1027328742E+00      0.2145377881E+00
          0                 3           2             4    7     1       0.1292591227E-03       4    7    1         0.7191299037E-02      0.1501753013E-01
          0                 4           1             4    7     1      -0.5143342240E-05       4    7    1        -0.2941245789E-03      0.6142137651E-03

    ------------------------------------------------
       NWT REQUIRED            4 OUTER ITERATIONS 
       AND A TOTAL OF          7 INNER ITERATIONS.
    ------------------------------------------------

 NO OUTPUT CONTROL FOR STRESS PERIOD   36   TIME STEP   17
 
 SOLVING FOR HEAD 
                                                   Max.-Head-Change                         Max.-Flux-Residual
  Residual-Control   Outer-Iter.   Inner-Iter.     Column Row Layer    Maximum-Head-Change  Column Row Layer    Maximum-Flux-Residual          L2-NORM 
          0                 1           2             4    7     1       0.1926039744E-01       4    7    1         0.1013913568E+01      0.2122054436E+01
          0                 2           2             4    7     1      -0.1873519506E-02       4    7    1        -0.1013918994E+00      0.2122043637E+00
          0                 3           1             4    7     1       0.1275796569E-03       4    7    1         0.7097430883E-02      0.1485416348E-01
          0                 4           1             4    7     1      -0.5076517230E-05       4    7    1        -0.2902853653E-03      0.6075186024E-03

    ------------------------------------------------
       NWT REQUIRED            4 OUTER ITERATIONS 
       AND A TOTAL OF          6 INNER ITERATIONS.
    ------------------------------------------------

 NO OUTPUT CONTROL FOR STRESS PERIOD   36   TIME STEP   18
 
 SOLVING FOR HEAD 
                                                   Max.-Head-Change                         Max.-Flux-Residual
  Residual-Control   Outer-Iter.   Inner-Iter.     Column Row Layer    Maximum-Head-Change  Column Row Layer    Maximum-Flux-Residual          L2-NORM 
          0                 1           2             4    7     1       0.1901115394E-01       4    7    1         0.1000730972E+01      0.2099156979E+01
          0                 2           2             4    7     1      -0.1849274704E-02       4    7    1        -0.1000736258E+00      0.2099147219E+00
          0                 3           1             4    7     1       0.1259286774E-03       4    7    1         0.7005151823E-02      0.1469391883E-01
          0                 4           1             4    7     1      -0.5010822658E-05       4    7    1        -0.2865111283E-03      0.6010014503E-03

    ------------------------------------------------
       NWT REQUIRED            4 OUTER ITERATIONS 
       AND A TOTAL OF          6 INNER ITERATIONS.
    ------------------------------------------------

 NO OUTPUT CONTROL FOR STRESS PERIOD   36   TIME STEP   19
 
 SOLVING FOR HEAD 
                                                   Max.-Head-Change                         Max.-Flux-Residual
  Residual-Control   Outer-Iter.   Inner-Iter.     Column Row Layer    Maximum-Head-Change  Column Row Layer    Maximum-Flux-Residual          L2-NORM 
          0                 1           2             4    7     1       0.1876653394E-01       4    7    1         0.9877933290E+00      0.2076688900E+01
          0                 2           2             4    7     1      -0.1825479648E-02       4    7    1        -0.9877984803E-01      0.2076680221E+00
          0                 3           1             4    7     1       0.1243083245E-03       4    7    1         0.6914587470E-02      0.1453665360E-01
          0                 4           1             4    7     1      -0.4946347518E-05       4    7    1        -0.2828070469E-03      0.5946168090E-03

    ------------------------------------------------
       NWT REQUIRED            4 OUTER ITERATIONS 
       AND A TOTAL OF          6 INNER ITERATIONS.
    ------------------------------------------------

 NO OUTPUT CONTROL FOR STRESS PERIOD   36   TIME STEP   20
 
 SOLVING FOR HEAD 
                                                   Max.-Head-Change                         Max.-Flux-Residual
  Residual-Control   Outer-Iter.   Inner-Iter.     Column Row Layer    Maximum-Head-Change  Column Row Layer    Maximum-Flux-Residual          L2-NORM 
          0                 1           2             4    7     1       0.1852603457E-01       4    7    1         0.9750734492E+00      0.2054628520E+01
          0                 2           2             4    7     1      -0.1802085422E-02       4    7    1        -0.9750784687E-01      0.2054620673E+00
          0                 3           1             4    7     1       0.1227152664E-03       4    7    1         0.6825547483E-02      0.1438222637E-01
          0                 4           1             4    7     1      -0.4882958146E-05       4    7    1        -0.2791653046E-03      0.5882250468E-03

    ------------------------------------------------
       NWT REQUIRED            4 OUTER ITERATIONS 
       AND A TOTAL OF          6 INNER ITERATIONS.
    ------------------------------------------------

 NO OUTPUT CONTROL FOR STRESS PERIOD   36   TIME STEP   21
 
 SOLVING FOR HEAD 
                                                   Max.-Head-Change                         Max.-Flux-Residual
  Residual-Control   Outer-Iter.   Inner-Iter.     Column Row Layer    Maximum-Head-Change  Column Row Layer    Maximum-Flux-Residual          L2-NORM 
          0                 1           2             4    7     1       0.1828984738E-01       4    7    1         0.9625818572E+00      0.2032981520E+01
          0                 2           2             4    7     1      -0.1779110660E-02       4    7    1        -0.9625867484E-01      0.2032974180E+00
          0                 3           1             4    7     1       0.1211507723E-03       4    7    1         0.6738105529E-02      0.1423070141E-01
          0                 4           1             4    7     1      -0.4820705544E-05       4    7    1        -0.2755889241E-03      0.5820345253E-03

    ------------------------------------------------
       NWT REQUIRED            4 OUTER ITERATIONS 
       AND A TOTAL OF          6 INNER ITERATIONS.
    ------------------------------------------------

 NO OUTPUT CONTROL FOR STRESS PERIOD   36   TIME STEP   22
 
 SOLVING FOR HEAD 
                                                   Max.-Head-Change                         Max.-Flux-Residual
  Residual-Control   Outer-Iter.   Inner-Iter.     Column Row Layer    Maximum-Head-Change  Column Row Layer    Maximum-Flux-Residual          L2-NORM 
          0                 1           2             4    7     1       0.1805775364E-01       4    7    1         0.9503065256E+00      0.2011737215E+01
          0                 2           2             4    7     1      -0.1756534083E-02       4    7    1        -0.9503112920E-01      0.2011730793E+00
          0                 3           1             4    7     1       0.1196133928E-03       4    7    1         0.6652177406E-02      0.1408207412E-01
          0                 4           1             4    7     1      -0.4759531918E-05       4    7    1        -0.2720744628E-03      0.5760759534E-03

    ------------------------------------------------
       NWT REQUIRED            4 OUTER ITERATIONS 
       AND A TOTAL OF          6 INNER ITERATIONS.
    ------------------------------------------------

 NO OUTPUT CONTROL FOR STRESS PERIOD   36   TIME STEP   23
 
 SOLVING FOR HEAD 
                                                   Max.-Head-Change                         Max.-Flux-Residual
  Residual-Control   Outer-Iter.   Inner-Iter.     Column Row Layer    Maximum-Head-Change  Column Row Layer    Maximum-Flux-Residual          L2-NORM 
          0                 1           2             4    7     1       0.1782980348E-01       4    7    1         0.9382507532E+00      0.1990874118E+01
          0                 2           2             4    7     1      -0.1734360568E-02       4    7    1        -0.9382553982E-01      0.1990868351E+00
          0                 3           1             4    7     1       0.1181034604E-03       4    7    1         0.6567786233E-02      0.1393598067E-01
          0                 4           1             4    7     1      -0.4699450047E-05       4    7    1        -0.2686228509E-03      0.5699745847E-03

    ------------------------------------------------
       NWT REQUIRED            4 OUTER ITERATIONS 
       AND A TOTAL OF          6 INNER ITERATIONS.
    ------------------------------------------------

 NO OUTPUT CONTROL FOR STRESS PERIOD   36   TIME STEP   24
 
 SOLVING FOR HEAD 
                                                   Max.-Head-Change                         Max.-Flux-Residual
  Residual-Control   Outer-Iter.   Inner-Iter.     Column Row Layer    Maximum-Head-Change  Column Row Layer    Maximum-Flux-Residual          L2-NORM 
          0                 1           2             4    7     1       0.1760591328E-01       4    7    1         0.9264098193E+00      0.1970389898E+01
          0                 2           2             4    7     1      -0.1712581983E-02       4    7    1        -0.9264143464E-01      0.1970384637E+00
          0                 3           1             4    7     1       0.1166204211E-03       4    7    1         0.6484898944E-02      0.1379261219E-01
          0                 4           1             4    7     1      -0.4640438632E-05       4    7    1        -0.2652327489E-03      0.5641083397E-03

    ------------------------------------------------
       NWT REQUIRED            4 OUTER ITERATIONS 
       AND A TOTAL OF          6 INNER ITERATIONS.
    ------------------------------------------------

 NO OUTPUT CONTROL FOR STRESS PERIOD   36   TIME STEP   25
 
 SOLVING FOR HEAD 
                                                   Max.-Head-Change                         Max.-Flux-Residual
  Residual-Control   Outer-Iter.   Inner-Iter.     Column Row Layer    Maximum-Head-Change  Column Row Layer    Maximum-Flux-Residual          L2-NORM 
          0                 1           2             4    7     1       0.1738586044E-01       4    7    1         0.9147720680E+00      0.1950270547E+01
          0                 2           2             4    7     1      -0.1691176672E-02       4    7    1        -0.9147764802E-01      0.1950265902E+00
          0                 3           1             4    7     1       0.1151628003E-03       4    7    1         0.6403433944E-02      0.1365179793E-01
          0                 4           1             4    7     1      -0.4582438614E-05       4    7    1        -0.2619008274E-03      0.5583557622E-03

    ------------------------------------------------
       NWT REQUIRED            4 OUTER ITERATIONS 
       AND A TOTAL OF          6 INNER ITERATIONS.
    ------------------------------------------------

 NO OUTPUT CONTROL FOR STRESS PERIOD   36   TIME STEP   26
 
 SOLVING FOR HEAD 
                                                   Max.-Head-Change                         Max.-Flux-Residual
  Residual-Control   Outer-Iter.   Inner-Iter.     Column Row Layer    Maximum-Head-Change  Column Row Layer    Maximum-Flux-Residual          L2-NORM 
          0                 1           2             4    7     1       0.1716970486E-01       4    7    1         0.9033405989E+00      0.1930513506E+01
          0                 2           2             4    7     1      -0.1670150463E-02       4    7    1        -0.9033448993E-01      0.1930509084E+00
          0                 3           1             4    7     1       0.1137309951E-03       4    7    1         0.6323412949E-02      0.1351348367E-01
          0                 4           1             4    7     1      -0.4525465648E-05       4    7    1        -0.2586279679E-03      0.5526926973E-03

    ------------------------------------------------
       NWT REQUIRED            4 OUTER ITERATIONS 
       AND A TOTAL OF          6 INNER ITERATIONS.
    ------------------------------------------------

 NO OUTPUT CONTROL FOR STRESS PERIOD   36   TIME STEP   27
 
 SOLVING FOR HEAD 
                                                   Max.-Head-Change                         Max.-Flux-Residual
  Residual-Control   Outer-Iter.   Inner-Iter.     Column Row Layer    Maximum-Head-Change  Column Row Layer    Maximum-Flux-Residual          L2-NORM 
          0                 1           2             4    7     1       0.1695736406E-01       4    7    1         0.8921111973E+00      0.1911108162E+01
          0                 2           2             4    7     1      -0.1649495332E-02       4    7    1        -0.8921153891E-01      0.1911104034E+00
          0                 3           1             4    7     1       0.1123244588E-03       4    7    1         0.6244806453E-02      0.1337765984E-01
          0                 4           1             4    7     1      -0.4469497977E-05       4    7    1        -0.2554129455E-03      0.5471354553E-03

    ------------------------------------------------
       NWT REQUIRED            4 OUTER ITERATIONS 
       AND A TOTAL OF          6 INNER ITERATIONS.
    ------------------------------------------------

 NO OUTPUT CONTROL FOR STRESS PERIOD   36   TIME STEP   28
 
 SOLVING FOR HEAD 
                                                   Max.-Head-Change                         Max.-Flux-Residual
  Residual-Control   Outer-Iter.   Inner-Iter.     Column Row Layer    Maximum-Head-Change  Column Row Layer    Maximum-Flux-Residual          L2-NORM 
          0                 1           2             4    7     1       0.1674875566E-01       4    7    1         0.8810795865E+00      0.1892043636E+01
          0                 2           2             4    7     1      -0.1629203267E-02       4    7    1        -0.8810836728E-01      0.1892039971E+00
          0                 3           1             4    7     1       0.1109426462E-03       4    7    1         0.6167584506E-02      0.1324423151E-01
          0                 4           1             4    7     1      -0.4414514647E-05       4    7    1        -0.2522545788E-03      0.5416922323E-03

    ------------------------------------------------
       NWT REQUIRED            4 OUTER ITERATIONS 
       AND A TOTAL OF          6 INNER ITERATIONS.
    ------------------------------------------------

 NO OUTPUT CONTROL FOR STRESS PERIOD   36   TIME STEP   29
 
 SOLVING FOR HEAD 
                                                   Max.-Head-Change                         Max.-Flux-Residual
  Residual-Control   Outer-Iter.   Inner-Iter.     Column Row Layer    Maximum-Head-Change  Column Row Layer    Maximum-Flux-Residual          L2-NORM 
          0                 1           2             4    7     1       0.1654366704E-01       4    7    1         0.8702341734E+00      0.1873310016E+01
          0                 2           2             4    7     1      -0.1609253584E-02       4    7    1        -0.8702381568E-01      0.1873306248E+00
          0                 3           1             4    7     1       0.1095841482E-03       4    7    1         0.6091665965E-02      0.1311308766E-01
          0                 4           1             4    7     1      -0.4360458900E-05       4    7    1        -0.2491495056E-03      0.5363243445E-03

    ------------------------------------------------
       NWT REQUIRED            4 OUTER ITERATIONS 
       AND A TOTAL OF          6 INNER ITERATIONS.
    ------------------------------------------------

 NO OUTPUT CONTROL FOR STRESS PERIOD   36   TIME STEP   30



 STREAM LISTING     PERIOD     36   STEP       30

 LAYER ROW COL. STREAM  RCH.  FLOW INTO     FLOW TO   FLOW OUT OF   OVRLND.     DIRECT     STREAM       STREAM     STREAM     STREAM   STREAMBED  STREAMBED
                SEG.NO.  NO.  STRM. RCH.    AQUIFER    STRM. RCH.    RUNOFF     PRECIP       ET          HEAD       DEPTH      WIDTH   CONDCTNC.   GRADIENT

   1    1    1     1     1    9.7497E+00  1.4616E-01   9.6035E+00  0.000E+00  0.000E+00  0.000E+00  1.09394E+03  8.903E-01  8.349E+00  3.757E-02  1.297E+00
   1    2    2     1     2    9.6035E+00  2.2466E-01   9.3789E+00  0.000E+00  0.000E+00  0.000E+00  1.08894E+03  8.846E-01  8.262E+00  5.783E-02  1.295E+00
   1    3    3     1     3    9.3789E+00  1.8995E-01   9.1889E+00  0.000E+00  0.000E+00  0.000E+00  1.08330E+03  8.782E-01  8.163E+00  4.898E-02  1.293E+00
   1    3    4     1     4    9.1889E+00  1.7356E-01   9.0154E+00  0.000E+00  0.000E+00  0.000E+00  1.07828E+03  8.725E-01  8.076E+00  4.482E-02  1.291E+00
   1    4    5     2     1    7.0154E+00  2.7742E-01   6.7380E+00  0.000E+00  0.000E+00  0.000E+00  1.07249E+03  5.566E-01  1.200E+01  7.800E-02  1.186E+00
   1    5    6     2     2    6.7380E+00  2.1268E-01   6.5253E+00  0.000E+00  0.000E+00  0.000E+00  1.06705E+03  5.446E-01  1.200E+01  6.000E-02  1.182E+00
   1    6    6     2     3    6.5253E+00  2.1205E-01   6.3132E+00  0.000E+00  0.000E+00  0.000E+00  1.06233E+03  5.341E-01  1.200E+01  6.000E-02  1.178E+00
   1    7    6     2     4    6.3132E+00  2.1141E-01   6.1018E+00  0.000E+00  0.000E+00  0.000E+00  1.05760E+03  5.235E-01  1.200E+01  6.000E-02  1.174E+00
   1    8    6     2     5    6.1018E+00  2.1076E-01   5.8911E+00  0.000E+00  0.000E+00  0.000E+00  1.05287E+03  5.127E-01  1.200E+01  6.000E-02  1.171E+00
   1    3    5     3     1    2.0000E+00  2.8252E-01   1.7175E+00  0.000E+00  0.000E+00  0.000E+00  1.07555E+03  1.909E+00  9.636E+00  7.227E-02  1.955E+00
   1    3    6     3     2    1.7175E+00  2.4905E-01   1.4684E+00  0.000E+00  0.000E+00  0.000E+00  1.07264E+03  1.727E+00  8.909E+00  6.682E-02  1.864E+00
   1    3    7     3     3    1.4684E+00  1.9718E-01   1.2712E+00  0.000E+00  0.000E+00  0.000E+00  1.06987E+03  1.555E+00  8.218E+00  5.547E-02  1.777E+00
   1    4    8     3     4    1.2712E+00  2.2567E-01   1.0456E+00  0.000E+00  0.000E+00  0.000E+00  1.06682E+03  1.364E+00  7.455E+00  6.709E-02  1.682E+00
   1    5    8     3     5    1.0456E+00  1.5790E-01   8.8768E-01  0.000E+00  0.000E+00  0.000E+00  1.06362E+03  1.164E+00  6.655E+00  4.991E-02  1.582E+00
   1    6    8     3     6    8.8768E-01  5.5980E-02   8.3170E-01  0.000E+00  0.000E+00  0.000E+00  1.06158E+03  1.036E+00  6.145E+00  1.844E-02  1.518E+00
   1    5   10     4     1    1.0000E+01  9.0919E-02   9.9091E+00  0.000E+00  0.000E+00  0.000E+00  1.07836E+03  6.368E-01  1.000E+01  2.500E-02  1.212E+00
   1    5    9     4     2    9.9091E+00  1.8158E-01   9.7275E+00  0.000E+00  0.000E+00  0.000E+00  1.07154E+03  6.315E-01  1.000E+01  5.000E-02  1.211E+00
   1    6    8     4     3    9.7275E+00  1.2689E-01   9.6006E+00  0.000E+00  0.000E+00  0.000E+00  1.06381E+03  6.256E-01  1.000E+01  3.500E-02  1.209E+00
   1    6    8     5     1    1.0432E+01  2.2686E-01   1.0205E+01  0.000E+00  0.000E+00  0.000E+00  1.05868E+03  6.790E-01  1.542E+01  6.166E-02  1.226E+00
   1    7    7     5     2    1.0205E+01  2.7894E-01   9.9265E+00  0.000E+00  0.000E+00  0.000E+00  1.05417E+03  6.732E-01  1.519E+01  7.594E-02  1.224E+00
   1    8    7     5     3    9.9265E+00  1.9221E-01   9.7343E+00  0.000E+00  0.000E+00  0.000E+00  1.04992E+03  6.676E-01  1.497E+01  5.241E-02  1.223E+00
   1    8    6     5     4    9.7343E+00  1.3577E-01   9.5985E+00  0.000E+00  0.000E+00  0.000E+00  1.04691E+03  6.637E-01  1.482E+01  3.706E-02  1.221E+00
   1    9    6     6     1    1.5490E+01  2.3472E-01   1.5255E+01  0.000E+00  0.000E+00  0.000E+00  1.04364E+03  9.120E-01  1.200E+01  6.000E-02  1.304E+00
   1   10    7     6     2    1.5255E+01  2.3422E-01   1.5021E+01  0.000E+00  0.000E+00  0.000E+00  1.03909E+03  9.037E-01  1.200E+01  6.000E-02  1.301E+00
   1   11    7     6     3    1.5021E+01  2.3372E-01   1.4787E+01  0.000E+00  0.000E+00  0.000E+00  1.03453E+03  8.953E-01  1.200E+01  6.000E-02  1.298E+00
   1   12    7     6     4    1.4787E+01  2.3321E-01   1.4554E+01  0.000E+00  0.000E+00  0.000E+00  1.02998E+03  8.868E-01  1.200E+01  6.000E-02  1.296E+00
   1   13    7     6     5    1.4554E+01  3.3223E-03   1.4550E+01  0.000E+00  0.000E+00  0.000E+00  1.02679E+03  8.825E-01  1.200E+01  2.400E-02  4.614E-02
   1   14    9     7     1    1.5000E+02  1.3839E+00   1.4862E+02  0.000E+00  0.000E+00  0.000E+00  1.03987E+03  2.288E+00  5.529E+01  5.593E-01  8.248E-01
   1   13    8     7     2    1.4862E+02  1.9757E+00   1.4664E+02  0.000E+00  0.000E+00  0.000E+00  1.03478E+03  2.279E+00  5.525E+01  6.147E-01  1.071E+00
   1   13    7     7     3    1.4664E+02  1.6947E+00   1.4495E+02  0.000E+00  0.000E+00  0.000E+00  1.02969E+03  2.269E+00  5.521E+01  5.584E-01  1.012E+00
   1   13    6     8     1    1.5950E+02  1.0806E+00   1.5842E+02  0.000E+00  0.000E+00  0.000E+00  1.02475E+03  2.879E+00  4.174E+01  4.254E-01  8.468E-01
   1   13    5     8     2    1.5842E+02  3.2824E-01   1.5809E+02  0.000E+00  0.000E+00  0.000E+00  1.01850E+03  2.874E+00  4.167E+01  4.247E-01  2.577E-01
   1   13    4     8     3    1.5809E+02 -1.9117E+00   1.6000E+02  0.000E+00  0.000E+00  0.000E+00  1.01225E+03  2.879E+00  4.175E+01  4.255E+00 -1.498E-01
   1   13    3     8     4    1.6000E+02 -3.3853E+00   1.6338E+02  0.000E+00  0.000E+00  0.000E+00  1.00602E+03  2.897E+00  4.201E+01  4.281E+00 -2.636E-01
   1   13    2     8     5    1.6338E+02 -2.5131E+00   1.6590E+02  0.000E+00  0.000E+00  0.000E+00  9.99792E+02  2.917E+00  4.230E+01  4.310E+00 -1.944E-01
   1   13    1     8     6    1.6590E+02 -1.9650E+00   1.6786E+02  0.000E+00  0.000E+00  0.000E+00  9.94807E+02  2.932E+00  4.251E+01  2.599E+00 -2.520E-01
   1    8    6     9     1    0.0000E+00  0.0000E+00   0.0000E+00  0.000E+00  0.000E+00  0.000E+00  1.07875E+03  0.000E+00  4.000E+00  0.000E+00  1.000E+00
   1    8    5     9     2    0.0000E+00  0.0000E+00   0.0000E+00  0.000E+00  0.000E+00  0.000E+00  1.07825E+03  0.000E+00  4.000E+00  0.000E+00  1.000E+00





UNSATURATED ZONE PACKAGE VOLUMETRIC BUDGET FOR  TIME STEP    30 STRESS PERIOD   36
  ------------------------------------------------------------------------------



     CUMULATIVE VOLUMES      L**3       RATES FOR THIS TIME STEP      L**3/T
     ------------------                 ------------------------

           IN:                                      IN:
           ---                                      ---
        INFILTRATION =  1596962747.5920          INFILTRATION =           4.4075

          OUT:                                     OUT:
          ----                                     ----
              UZF ET =  1489888376.2849                UZF ET =           0.7250
        UZF RECHARGE =      717884.2805          UZF RECHARGE =       0.0000E+00

            IN - OUT =   106356487.0266              IN - OUT =           3.6825

          STORAGE:                                 STORAGE:
          --------                                 --------
      STORAGE CHANGE =   106356463.7512        STORAGE CHANGE =           3.6825

 PERCENT DISCREPANCY IS DIFFERENCE BETWEEN IN-OUT MINUS CHANGE IN STORAGE
 DIVIDED BY THE AVERAGE OF IN AND OUT TIMES 100

 PERCENT DISCREPANCY =           0.00     PERCENT DISCREPANCY =           0.00






1
  VOLUMETRIC BUDGET FOR AGRICULTURAL FIELDS AT  END OF TIME STEP   30, STRESS PERIOD  36
  ------------------------------------------------------------------------------

     CUMULATIVE VOLUMES      L**3       RATES FOR THIS TIME STEP      L**3/T
     ------------------                 ------------------------

           IN:                                      IN:
           ---                                      ---
               AG WELLS  =   593838720.0000                 AG WELLS  =           0.0000
      DIVERSION SEGMENTS =   597329216.0000        DIVERSION SEGMENTS =           0.0000
           GW IRRIGATION =           0.0000             GW IRRIGATION =           0.0000
           SW IRRIGATION =           0.0000             SW IRRIGATION =           0.0000
        SYSTEM LOSSES GW =           0.0000          SYSTEM LOSSES GW =           0.0000
        SYSTEM LOSSES SW =           0.0000          SYSTEM LOSSES SW =           0.0000

                TOTAL IN =  1191168000.0000                  TOTAL IN =           0.0000

          OUT:                                     OUT:
          ----                                     ----
               AG WELLS  =           0.0000                 AG WELLS  =           0.0000
      DIVERSION SEGMENTS =           0.0000        DIVERSION SEGMENTS =           0.0000
           GW IRRIGATION =   593838720.0000             GW IRRIGATION =           0.0000
           SW IRRIGATION =   597340736.0000             SW IRRIGATION =           0.0000
        SYSTEM LOSSES GW =           0.0000          SYSTEM LOSSES GW =           0.0000
        SYSTEM LOSSES SW =           0.0000          SYSTEM LOSSES SW =           0.0000

               TOTAL OUT =  1191179520.0000                 TOTAL OUT =           0.0000

                IN - OUT =      -11520.0000                  IN - OUT =           0.0000

     PERCENT DISCREPANCY =          -0.00         PERCENT DISCREPANCY =           0.00



1
  VOLUMETRIC BUDGET FOR ENTIRE MODEL AT END OF TIME STEP   30, STRESS PERIOD  36
  ------------------------------------------------------------------------------

     CUMULATIVE VOLUMES      L**3       RATES FOR THIS TIME STEP      L**3/T
     ------------------                 ------------------------

           IN:                                      IN:
           ---                                      ---
             STORAGE     =   861768192.0000               STORAGE     =           4.0863
       CONSTANT HEAD     =           0.0000         CONSTANT HEAD     =           0.0000
     HEAD DEP BOUNDS     =    26560654.0000       HEAD DEP BOUNDS     =           0.2890
      STREAM LEAKAGE     =  1087818880.0000        STREAM LEAKAGE     =          11.6625
        UZF RECHARGE     =      717884.3750          UZF RECHARGE     =           0.0000
               GW ET     =           0.0000                 GW ET     =           0.0000
     SURFACE LEAKAGE     =           0.0000       SURFACE LEAKAGE     =           0.0000
           AG WELLS      =           0.0000             AG WELLS      =           0.0000

                TOTAL IN =  1976865536.0000                  TOTAL IN =          16.0378

          OUT:                                     OUT:
          ----                                     ----
             STORAGE     =   423360320.0000               STORAGE     =           5.9752
       CONSTANT HEAD     =           0.0000         CONSTANT HEAD     =           0.0000
     HEAD DEP BOUNDS     =    26521132.0000       HEAD DEP BOUNDS     =           0.2874
      STREAM LEAKAGE     =   933095360.0000        STREAM LEAKAGE     =           9.7752
        UZF RECHARGE     =           0.0000          UZF RECHARGE     =           0.0000
               GW ET     =           0.0000                 GW ET     =           0.0000
     SURFACE LEAKAGE     =           0.0000       SURFACE LEAKAGE     =           0.0000
           AG WELLS      =   593838720.0000             AG WELLS      =           0.0000

               TOTAL OUT =  1976815488.0000                 TOTAL OUT =          16.0378

                IN - OUT =       50048.0000                  IN - OUT =       1.1444E-05

     PERCENT DISCREPANCY =           0.00         PERCENT DISCREPANCY =           0.00






         TIME SUMMARY AT END OF TIME STEP   30 IN STRESS PERIOD   36
                    SECONDS     MINUTES      HOURS       DAYS        YEARS
                    -----------------------------------------------------------
   TIME STEP LENGTH  87667.      1461.1      24.352      1.0147     2.77799E-03
 STRESS PERIOD TIME 2.63000E+06  43833.      730.56      30.440     8.33397E-02
         TOTAL TIME 9.21360E+07 1.53560E+06  25593.      1066.4      2.9196    
1
1
                            STRESS PERIOD NO.   37, LENGTH =   2630000.    
                            -----------------------------------------------

                              NUMBER OF TIME STEPS =    30

                               MULTIPLIER FOR DELT =     1.000

                            INITIAL TIME STEP SIZE =   87666.66    

 REUSING NON-PARAMETER GHB CELLS FROM LAST STRESS PERIOD

      2 GHB CELLS

 REUSING STREAM SEGMENT DATA FROM LAST STRESS PERIOD



            AREAL INFILTRATION RATE
 READING ON UNIT   19 WITH FORMAT: (10F4.0)            

            1           2           3           4           5           6           7           8           9          10
 ........................................................................................................................
   1   1.2000E-09   0.000       0.000       0.000       0.000       0.000       0.000       0.000       0.000       0.000    
   2   2.1000E-09  2.0000E-09  8.0000E-10  8.5000E-09   0.000       0.000       0.000       0.000       0.000       0.000    
   3   5.0000E-10  1.1000E-09  8.8000E-09  5.5000E-09   0.000       0.000       0.000       0.000       0.000       0.000    
   4   8.5000E-09  1.1000E-09  1.1000E-09  1.1000E-09  2.0000E-09   0.000       0.000       0.000       0.000       0.000    
   5   8.5000E-09  1.1000E-09  1.1000E-09  1.1000E-09  1.1000E-09   0.000       0.000       0.000       0.000       0.000    
   6   8.5000E-09  5.2000E-09  2.1000E-09  1.1000E-09  1.5000E-09   0.000       0.000       0.000       0.000       0.000    
   7   8.5000E-09  5.2000E-09  2.1000E-09  1.2000E-09  2.0000E-09   0.000       0.000       0.000       0.000       0.000    
   8   5.0000E-10  5.2000E-09  2.1000E-09  1.2000E-09  5.0000E-09   0.000       0.000       0.000       0.000       0.000    
   9   5.0000E-10  5.2000E-09  2.1000E-09  1.2000E-09  5.0000E-09   0.000       0.000       0.000       0.000       0.000    
  10   5.0000E-10  5.2000E-09  2.1000E-09  1.2000E-09  5.8000E-09   0.000       0.000       0.000       0.000       0.000    
  11   1.0000E-10  1.1000E-09  1.1000E-09  1.2000E-09  5.0000E-09   0.000       0.000       0.000       0.000       0.000    
  12   1.1000E-09  1.1000E-09  1.1000E-09  1.1000E-09  2.0000E-09   0.000       0.000       0.000       0.000       0.000    
  13   1.1000E-09  2.2000E-09  2.2000E-09  2.1000E-09  1.0000E-09   0.000       0.000       0.000       0.000       0.000    
  14   2.0000E-10  5.5000E-09  5.5000E-09  5.2000E-09  1.0000E-09   0.000       0.000       0.000       0.000       0.000    
  15    0.000      8.8000E-09  8.8000E-09   0.000       0.000       0.000       0.000       0.000       0.000       0.000    

                  ET RATE =  5.000000E-10

 USING ET EXTINCTION DEPTH FROM PREVIOUS STRESS PERIOD. CURRENT PERIOD IS:      37

 USING EXTINCTION WATER CONTENT FROM PREVIOUS STRESS PERIOD. CURRENT PERIOD IS:      37

 USING AIR ENTRY PRESSURE FROM PREVIOUS STRESS PERIOD. CURRENT PERIOD IS:      37

 USING ROOT PRESSURE HEAD FROM PREVIOUS STRESS PERIOD. CURRENT PERIOD IS:      37

 USING ROOT ACTIVITY FROM PREVIOUS STRESS PERIOD. CURRENT PERIOD IS:      37

 PROCESSING AG STRESS PERIOD DATA

 READING AG STRESS PERIOD DATA

 READING IRRIGATION SEGMENT

 READING IRRIGATION WELL

 READING SUPPLEMENTAL WELL

 END PROCESSING AG STRESS PERIOD DATA OPTIONS
 
 SOLVING FOR HEAD 
                                                   Max.-Head-Change                         Max.-Flux-Residual
  Residual-Control   Outer-Iter.   Inner-Iter.     Column Row Layer    Maximum-Head-Change  Column Row Layer    Maximum-Flux-Residual          L2-NORM 
          0                 1           2             4    7     1       0.1634216022E-01       4    7    1         0.8595785773E+00      0.1855660688E+01
          0                 2           2             4    7     1      -0.1589652318E-02       4    7    1        -0.8595824608E-01      0.1855648852E+00
          0                 3           1             4    7     1       0.1082493759E-03       4    7    1         0.6017076150E-02      0.1298940039E-01
          0                 4           1             4    7     1      -0.4307346624E-05       4    7    1        -0.2460987671E-03      0.5312333901E-03

    ------------------------------------------------
       NWT REQUIRED            4 OUTER ITERATIONS 
       AND A TOTAL OF          6 INNER ITERATIONS.
    ------------------------------------------------

 NO OUTPUT CONTROL FOR STRESS PERIOD   37   TIME STEP    1
 
 SOLVING FOR HEAD 
                                                   Max.-Head-Change                         Max.-Flux-Residual
  Residual-Control   Outer-Iter.   Inner-Iter.     Column Row Layer    Maximum-Head-Change  Column Row Layer    Maximum-Flux-Residual          L2-NORM 
          0                 1           2             4    7     1       0.1614427742E-01       4    7    1         0.8491160158E+00      0.1840096543E+01
          0                 2           2             4    7     1      -0.1570403574E-02       4    7    1        -0.8491198025E-01      0.1840044590E+00
          0                 3           1             4    7     1       0.1069386093E-03       4    7    1         0.5943837606E-02      0.1287981040E-01
          0                 4           1             4    7     1      -0.4255190252E-05       4    7    1        -0.2431033126E-03      0.5267486006E-03

    ------------------------------------------------
       NWT REQUIRED            4 OUTER ITERATIONS 
       AND A TOTAL OF          6 INNER ITERATIONS.
    ------------------------------------------------

 NO OUTPUT CONTROL FOR STRESS PERIOD   37   TIME STEP    2
 
 SOLVING FOR HEAD 
                                                   Max.-Head-Change                         Max.-Flux-Residual
  Residual-Control   Outer-Iter.   Inner-Iter.     Column Row Layer    Maximum-Head-Change  Column Row Layer    Maximum-Flux-Residual          L2-NORM 
          0                 1           2             4    7     1       0.1594967364E-01       4    7    1         0.8388267086E+00      0.1822186993E+01
          0                 2           2             4    7     1      -0.1551473792E-02       4    7    1        -0.8388304008E-01      0.1822140696E+00
          0                 3           1             4    7     1       0.1056495625E-03       4    7    1         0.5871811834E-02      0.1275452718E-01
          0                 4           1             4    7     1      -0.4203897912E-05       4    7    1        -0.2401574620E-03      0.5216483708E-03

    ------------------------------------------------
       NWT REQUIRED            4 OUTER ITERATIONS 
       AND A TOTAL OF          6 INNER ITERATIONS.
    ------------------------------------------------

 NO OUTPUT CONTROL FOR STRESS PERIOD   37   TIME STEP    3
 
 SOLVING FOR HEAD 
                                                   Max.-Head-Change                         Max.-Flux-Residual
  Residual-Control   Outer-Iter.   Inner-Iter.     Column Row Layer    Maximum-Head-Change  Column Row Layer    Maximum-Flux-Residual          L2-NORM 
          0                 1           2             4    7     1       0.1575855296E-01       4    7    1         0.8287220601E+00      0.1804602831E+01
          0                 2           2             4    7     1      -0.1532882826E-02       4    7    1        -0.8287256604E-01      0.1804561504E+00
          0                 3           1             4    7     1       0.1043835880E-03       4    7    1         0.5801078717E-02      0.1263156066E-01
          0                 4           1             4    7     1      -0.4153523370E-05       4    7    1        -0.2372644581E-03      0.5166067923E-03

    ------------------------------------------------
       NWT REQUIRED            4 OUTER ITERATIONS 
       AND A TOTAL OF          6 INNER ITERATIONS.
    ------------------------------------------------

 NO OUTPUT CONTROL FOR STRESS PERIOD   37   TIME STEP    4
 
 SOLVING FOR HEAD 
                                                   Max.-Head-Change                         Max.-Flux-Residual
  Residual-Control   Outer-Iter.   Inner-Iter.     Column Row Layer    Maximum-Head-Change  Column Row Layer    Maximum-Flux-Residual          L2-NORM 
          0                 1           2             4    7     1       0.1557070088E-01       4    7    1         0.8187906828E+00      0.1787312930E+01
          0                 2           2             4    7     1      -0.1514609809E-02       4    7    1        -0.8187941941E-01      0.1787275519E+00
          0                 3           1             4    7     1       0.1031392646E-03       4    7    1         0.5731558499E-02      0.1251055924E-01
          0                 4           1             4    7     1      -0.4104010789E-05       4    7    1        -0.2344210961E-03      0.5116554592E-03

    ------------------------------------------------
       NWT REQUIRED            4 OUTER ITERATIONS 
       AND A TOTAL OF          6 INNER ITERATIONS.
    ------------------------------------------------

 NO OUTPUT CONTROL FOR STRESS PERIOD   37   TIME STEP    5
 
 SOLVING FOR HEAD 
                                                   Max.-Head-Change                         Max.-Flux-Residual
  Residual-Control   Outer-Iter.   Inner-Iter.     Column Row Layer    Maximum-Head-Change  Column Row Layer    Maximum-Flux-Residual          L2-NORM 
          0                 1           2             4    7     1       0.1538591478E-01       4    7    1         0.8090214534E+00      0.1770327103E+01
          0                 2           2             4    7     1      -0.1496635032E-02       4    7    1        -0.8090248777E-01      0.1770293782E+00
          0                 3           1             4    7     1       0.1019152502E-03       4    7    1         0.5663173359E-02      0.1239174539E-01
          0                 4           1             4    7     1      -0.4055305827E-05       4    7    1        -0.2316241225E-03      0.5068140094E-03

    ------------------------------------------------
       NWT REQUIRED            4 OUTER ITERATIONS 
       AND A TOTAL OF          6 INNER ITERATIONS.
    ------------------------------------------------

 NO OUTPUT CONTROL FOR STRESS PERIOD   37   TIME STEP    6
 
 SOLVING FOR HEAD 
                                                   Max.-Head-Change                         Max.-Flux-Residual
  Residual-Control   Outer-Iter.   Inner-Iter.     Column Row Layer    Maximum-Head-Change  Column Row Layer    Maximum-Flux-Residual          L2-NORM 
          0                 1           2             4    7     1       0.1520453860E-01       4    7    1         0.7994331625E+00      0.1753640044E+01
          0                 2           2             4    7     1      -0.1478991951E-02       4    7    1        -0.7994365024E-01      0.1753610157E+00
          0                 3           1             4    7     1       0.1007138231E-03       4    7    1         0.5596054776E-02      0.1227499540E-01
          0                 4           1             4    7     1      -0.4007500127E-05       4    7    1        -0.2288789756E-03      0.5020227914E-03

    ------------------------------------------------
       NWT REQUIRED            4 OUTER ITERATIONS 
       AND A TOTAL OF          6 INNER ITERATIONS.
    ------------------------------------------------

 NO OUTPUT CONTROL FOR STRESS PERIOD   37   TIME STEP    7
 
 SOLVING FOR HEAD 
                                                   Max.-Head-Change                         Max.-Flux-Residual
  Residual-Control   Outer-Iter.   Inner-Iter.     Column Row Layer    Maximum-Head-Change  Column Row Layer    Maximum-Flux-Residual          L2-NORM 
          0                 1           2             4    7     1       0.1502608704E-01       4    7    1         0.7899996995E+00      0.1737225666E+01
          0                 2           2             4    7     1      -0.1461633359E-02       4    7    1        -0.7900029573E-01      0.1737198746E+00
          0                 3           1             4    7     1       0.9953176851E-04       4    7    1         0.5530020008E-02      0.1216013771E-01

    ------------------------------------------------
       NWT REQUIRED            3 OUTER ITERATIONS 
       AND A TOTAL OF          5 INNER ITERATIONS.
    ------------------------------------------------

 NO OUTPUT CONTROL FOR STRESS PERIOD   37   TIME STEP    8
 
 SOLVING FOR HEAD 
                                                   Max.-Head-Change                         Max.-Flux-Residual
  Residual-Control   Outer-Iter.   Inner-Iter.     Column Row Layer    Maximum-Head-Change  Column Row Layer    Maximum-Flux-Residual          L2-NORM 
          0                 1           2             4    7     1       0.1485071028E-01       4    7    1         0.7807293599E+00      0.1721084516E+01
          0                 2           2             4    7     1      -0.1444573864E-02       4    7    1        -0.7807325379E-01      0.1721060078E+00
          0                 3           1             4    7     1       0.9837008107E-04       4    7    1         0.5465127110E-02      0.1204716850E-01

    ------------------------------------------------
       NWT REQUIRED            3 OUTER ITERATIONS 
       AND A TOTAL OF          5 INNER ITERATIONS.
    ------------------------------------------------

 NO OUTPUT CONTROL FOR STRESS PERIOD   37   TIME STEP    9
 
 SOLVING FOR HEAD 
                                                   Max.-Head-Change                         Max.-Flux-Residual
  Residual-Control   Outer-Iter.   Inner-Iter.     Column Row Layer    Maximum-Head-Change  Column Row Layer    Maximum-Flux-Residual          L2-NORM 
          0                 1           2             4    7     1       0.1467826663E-01       4    7    1         0.7716143333E+00      0.1705215333E+01
          0                 2           2             4    7     1      -0.1427799684E-02       4    7    1        -0.7716174337E-01      0.1705193088E+00
          0                 3           1             4    7     1       0.9722782285E-04       4    7    1         0.5401321439E-02      0.1193612720E-01

    ------------------------------------------------
       NWT REQUIRED            3 OUTER ITERATIONS 
       AND A TOTAL OF          5 INNER ITERATIONS.
    ------------------------------------------------

 NO OUTPUT CONTROL FOR STRESS PERIOD   37   TIME STEP   10
 
 SOLVING FOR HEAD 
                                                   Max.-Head-Change                         Max.-Flux-Residual
  Residual-Control   Outer-Iter.   Inner-Iter.     Column Row Layer    Maximum-Head-Change  Column Row Layer    Maximum-Flux-Residual          L2-NORM 
          0                 1           2             4    7     1       0.1450882919E-01       4    7    1         0.7626587088E+00      0.1689613302E+01
          0                 2           2             4    7     1      -0.1411317930E-02       4    7    1        -0.7626617335E-01      0.1689592974E+00
          0                 3           1             4    7     1       0.9610547749E-04       4    7    1         0.5338631573E-02      0.1182694987E-01

    ------------------------------------------------
       NWT REQUIRED            3 OUTER ITERATIONS 
       AND A TOTAL OF          5 INNER ITERATIONS.
    ------------------------------------------------

 NO OUTPUT CONTROL FOR STRESS PERIOD   37   TIME STEP   11
 
 SOLVING FOR HEAD 
                                                   Max.-Head-Change                         Max.-Flux-Residual
  Residual-Control   Outer-Iter.   Inner-Iter.     Column Row Layer    Maximum-Head-Change  Column Row Layer    Maximum-Flux-Residual          L2-NORM 
          0                 1           2             4    7     1       0.1434219933E-01       4    7    1         0.7538516262E+00      0.1674267123E+01
          0                 2           2             4    7     1      -0.1395133058E-02       4    7    1        -0.7538545775E-01      0.1674646716E+00
          0                 3           1             4    7     1       0.9500334864E-04       4    7    1         0.5276981522E-02      0.1172235088E-01

    ------------------------------------------------
       NWT REQUIRED            3 OUTER ITERATIONS 
       AND A TOTAL OF          5 INNER ITERATIONS.
    ------------------------------------------------

 NO OUTPUT CONTROL FOR STRESS PERIOD   37   TIME STEP   12
 
 SOLVING FOR HEAD 
                                                   Max.-Head-Change                         Max.-Flux-Residual
  Residual-Control   Outer-Iter.   Inner-Iter.     Column Row Layer    Maximum-Head-Change  Column Row Layer    Maximum-Flux-Residual          L2-NORM 
          0                 1           2             4    7     1       0.1417833565E-01       4    7    1         0.7451961728E+00      0.1659143163E+01
          0                 2           2             4    7     1      -0.1379169718E-02       4    7    1        -0.7451990543E-01      0.1659125810E+00
          0                 3           1             4    7     1       0.9391630570E-04       4    7    1         0.5216392915E-02      0.1161365244E-01

    ------------------------------------------------
       NWT REQUIRED            3 OUTER ITERATIONS 
       AND A TOTAL OF          5 INNER ITERATIONS.
    ------------------------------------------------

 NO OUTPUT CONTROL FOR STRESS PERIOD   37   TIME STEP   13
 
 SOLVING FOR HEAD 
                                                   Max.-Head-Change                         Max.-Flux-Residual
  Residual-Control   Outer-Iter.   Inner-Iter.     Column Row Layer    Maximum-Head-Change  Column Row Layer    Maximum-Flux-Residual          L2-NORM 
          0                 1           2             4    7     1       0.1401712154E-01       4    7    1         0.7366793419E+00      0.1644212106E+01
          0                 2           2             4    7     1      -0.1363487879E-02       4    7    1        -0.7366821549E-01      0.1644196850E+00
          0                 3           1             4    7     1       0.9284843152E-04       4    7    1         0.5156774647E-02      0.1150922724E-01

    ------------------------------------------------
       NWT REQUIRED            3 OUTER ITERATIONS 
       AND A TOTAL OF          5 INNER ITERATIONS.
    ------------------------------------------------

 NO OUTPUT CONTROL FOR STRESS PERIOD   37   TIME STEP   14
 
 SOLVING FOR HEAD 
                                                   Max.-Head-Change                         Max.-Flux-Residual
  Residual-Control   Outer-Iter.   Inner-Iter.     Column Row Layer    Maximum-Head-Change  Column Row Layer    Maximum-Flux-Residual          L2-NORM 
          0                 1           2             4    7     1       0.1385861927E-01       4    7    1         0.7283059495E+00      0.1629527561E+01
          0                 2           2             4    7     1      -0.1348069831E-02       4    7    1        -0.7283086960E-01      0.1629513356E+00
          0                 3           1             4    7     1       0.9179852025E-04       4    7    1         0.5098160464E-02      0.1140642935E-01

    ------------------------------------------------
       NWT REQUIRED            3 OUTER ITERATIONS 
       AND A TOTAL OF          5 INNER ITERATIONS.
    ------------------------------------------------

 NO OUTPUT CONTROL FOR STRESS PERIOD   37   TIME STEP   15
 
 SOLVING FOR HEAD 
                                                   Max.-Head-Change                         Max.-Flux-Residual
  Residual-Control   Outer-Iter.   Inner-Iter.     Column Row Layer    Maximum-Head-Change  Column Row Layer    Maximum-Flux-Residual          L2-NORM 
          0                 1           2             4    7     1       0.1370263752E-01       4    7    1         0.7200658355E+00      0.1615076653E+01
          0                 2           2             4    7     1      -0.1332896964E-02       4    7    1        -0.7200685167E-01      0.1615063527E+00
          0                 3           1             4    7     1       0.9076530533E-04       4    7    1         0.5040479256E-02      0.1130530330E-01

    ------------------------------------------------
       NWT REQUIRED            3 OUTER ITERATIONS 
       AND A TOTAL OF          5 INNER ITERATIONS.
    ------------------------------------------------

 NO OUTPUT CONTROL FOR STRESS PERIOD   37   TIME STEP   16
 
 SOLVING FOR HEAD 
                                                   Max.-Head-Change                         Max.-Flux-Residual
  Residual-Control   Outer-Iter.   Inner-Iter.     Column Row Layer    Maximum-Head-Change  Column Row Layer    Maximum-Flux-Residual          L2-NORM 
          0                 1           2             4    7     1       0.1354926386E-01       4    7    1         0.7119637325E+00      0.1600857302E+01
          0                 2           2             4    7     1      -0.1317977794E-02       4    7    1        -0.7119663504E-01      0.1600845073E+00
          0                 3           1             4    7     1       0.8974936649E-04       4    7    1         0.4983764137E-02      0.1120578429E-01

    ------------------------------------------------
       NWT REQUIRED            3 OUTER ITERATIONS 
       AND A TOTAL OF          5 INNER ITERATIONS.
    ------------------------------------------------

 NO OUTPUT CONTROL FOR STRESS PERIOD   37   TIME STEP   17
 
 SOLVING FOR HEAD 
                                                   Max.-Head-Change                         Max.-Flux-Residual
  Residual-Control   Outer-Iter.   Inner-Iter.     Column Row Layer    Maximum-Head-Change  Column Row Layer    Maximum-Flux-Residual          L2-NORM 
          0                 1           2             4    7     1       0.1339844532E-01       4    7    1         0.7039968541E+00      0.1586873897E+01
          0                 2           2             4    7     1      -0.1303307171E-02       4    7    1        -0.7039994104E-01      0.1586862903E+00
          0                 3           1             4    7     1       0.8875035193E-04       4    7    1         0.4927995577E-02      0.1110794521E-01

    ------------------------------------------------
       NWT REQUIRED            3 OUTER ITERATIONS 
       AND A TOTAL OF          5 INNER ITERATIONS.
    ------------------------------------------------

 NO OUTPUT CONTROL FOR STRESS PERIOD   37   TIME STEP   18
 
 SOLVING FOR HEAD 
                                                   Max.-Head-Change                         Max.-Flux-Residual
  Residual-Control   Outer-Iter.   Inner-Iter.     Column Row Layer    Maximum-Head-Change  Column Row Layer    Maximum-Flux-Residual          L2-NORM 
          0                 1           2             4    7     1       0.1325012972E-01       4    7    1         0.6961624552E+00      0.1573111483E+01
          0                 2           2             4    7     1      -0.1288880019E-02       4    7    1        -0.6961649514E-01      0.1573101124E+00
          0                 3           1             4    7     1       0.8776791763E-04       4    7    1         0.4873154413E-02      0.1101158658E-01

    ------------------------------------------------
       NWT REQUIRED            3 OUTER ITERATIONS 
       AND A TOTAL OF          5 INNER ITERATIONS.
    ------------------------------------------------

 NO OUTPUT CONTROL FOR STRESS PERIOD   37   TIME STEP   19
 
 SOLVING FOR HEAD 
                                                   Max.-Head-Change                         Max.-Flux-Residual
  Residual-Control   Outer-Iter.   Inner-Iter.     Column Row Layer    Maximum-Head-Change  Column Row Layer    Maximum-Flux-Residual          L2-NORM 
          0                 1           2             4    7     1       0.1310413035E-01       4    7    1         0.6884505032E+00      0.1559564097E+01
          0                 2           2             4    7     1      -0.1274678174E-02       4    7    1        -0.6884529409E-01      0.1559554346E+00
          0                 3           1             4    7     1       0.8680082520E-04       4    7    1         0.4819170359E-02      0.1091676249E-01

    ------------------------------------------------
       NWT REQUIRED            3 OUTER ITERATIONS 
       AND A TOTAL OF          5 INNER ITERATIONS.
    ------------------------------------------------

 NO OUTPUT CONTROL FOR STRESS PERIOD   37   TIME STEP   20
 
 SOLVING FOR HEAD 
                                                   Max.-Head-Change                         Max.-Flux-Residual
  Residual-Control   Outer-Iter.   Inner-Iter.     Column Row Layer    Maximum-Head-Change  Column Row Layer    Maximum-Flux-Residual          L2-NORM 
          0                 1           2             4    7     1       0.1296067059E-01       4    7    1         0.6808732976E+00      0.1546230387E+01
          0                 2           2             4    7     1      -0.1260723367E-02       4    7    1        -0.6808756783E-01      0.1546221217E+00
          0                 3           1             4    7     1       0.8585055538E-04       4    7    1         0.4766129552E-02      0.1082344312E-01

    ------------------------------------------------
       NWT REQUIRED            3 OUTER ITERATIONS 
       AND A TOTAL OF          5 INNER ITERATIONS.
    ------------------------------------------------

 NO OUTPUT CONTROL FOR STRESS PERIOD   37   TIME STEP   21
 
 SOLVING FOR HEAD 
                                                   Max.-Head-Change                         Max.-Flux-Residual
  Residual-Control   Outer-Iter.   Inner-Iter.     Column Row Layer    Maximum-Head-Change  Column Row Layer    Maximum-Flux-Residual          L2-NORM 
          0                 1           2             4    7     1       0.1281942685E-01       4    7    1         0.6734131123E+00      0.1533109924E+01
          0                 2           2             4    7     1      -0.1246984120E-02       4    7    1        -0.6734154375E-01      0.1533101148E+00
          0                 3           1             4    7     1       0.8491496464E-04       4    7    1         0.4713907911E-02      0.1073164455E-01

    ------------------------------------------------
       NWT REQUIRED            3 OUTER ITERATIONS 
       AND A TOTAL OF          5 INNER ITERATIONS.
    ------------------------------------------------

 NO OUTPUT CONTROL FOR STRESS PERIOD   37   TIME STEP   22
 
 SOLVING FOR HEAD 
                                                   Max.-Head-Change                         Max.-Flux-Residual
  Residual-Control   Outer-Iter.   Inner-Iter.     Column Row Layer    Maximum-Head-Change  Column Row Layer    Maximum-Flux-Residual          L2-NORM 
          0                 1           2             4    7     1       0.1268049446E-01       4    7    1         0.6660751509E+00      0.1520191916E+01
          0                 2           2             4    7     1      -0.1233469706E-02       4    7    1        -0.6660774218E-01      0.1520183808E+00
          0                 3           1             4    7     1       0.8399468370E-04       4    7    1         0.4662541824E-02      0.1064120138E-01

    ------------------------------------------------
       NWT REQUIRED            3 OUTER ITERATIONS 
       AND A TOTAL OF          5 INNER ITERATIONS.
    ------------------------------------------------

 NO OUTPUT CONTROL FOR STRESS PERIOD   37   TIME STEP   23
 
 SOLVING FOR HEAD 
                                                   Max.-Head-Change                         Max.-Flux-Residual
  Residual-Control   Outer-Iter.   Inner-Iter.     Column Row Layer    Maximum-Head-Change  Column Row Layer    Maximum-Flux-Residual          L2-NORM 
          0                 1           2             4    7     1       0.1254382238E-01       4    7    1         0.6588570301E+00      0.1507472747E+01
          0                 2           2             4    7     1      -0.1220175160E-02       4    7    1        -0.6588592483E-01      0.1507465082E+00
          0                 3           1             4    7     1       0.8308937495E-04       4    7    1         0.4612014622E-02      0.1055217448E-01

    ------------------------------------------------
       NWT REQUIRED            3 OUTER ITERATIONS 
       AND A TOTAL OF          5 INNER ITERATIONS.
    ------------------------------------------------

 NO OUTPUT CONTROL FOR STRESS PERIOD   37   TIME STEP   24
 
 SOLVING FOR HEAD 
                                                   Max.-Head-Change                         Max.-Flux-Residual
  Residual-Control   Outer-Iter.   Inner-Iter.     Column Row Layer    Maximum-Head-Change  Column Row Layer    Maximum-Flux-Residual          L2-NORM 
          0                 1           2             4    7     1       0.1240922857E-01       4    7    1         0.6517487740E+00      0.1494945182E+01
          0                 2           2             4    7     1      -0.1207082777E-02       4    7    1        -0.6517509408E-01      0.1494937769E+00
          0                 3           1             4    7     1       0.8219783312E-04       4    7    1         0.4562256509E-02      0.1046448284E-01

    ------------------------------------------------
       NWT REQUIRED            3 OUTER ITERATIONS 
       AND A TOTAL OF          5 INNER ITERATIONS.
    ------------------------------------------------

 NO OUTPUT CONTROL FOR STRESS PERIOD   37   TIME STEP   25
 
 SOLVING FOR HEAD 
                                                   Max.-Head-Change                         Max.-Flux-Residual
  Residual-Control   Outer-Iter.   Inner-Iter.     Column Row Layer    Maximum-Head-Change  Column Row Layer    Maximum-Flux-Residual          L2-NORM 
          0                 1           2             4    7     1       0.1227694364E-01       4    7    1         0.6447629294E+00      0.1482614230E+01
          0                 2           2             4    7     1      -0.1194214986E-02       4    7    1        -0.6447650462E-01      0.1482597619E+00
          0                 3           1             4    7     1       0.8132158501E-04       4    7    1         0.4513355262E-02      0.1038178836E-01

    ------------------------------------------------
       NWT REQUIRED            3 OUTER ITERATIONS 
       AND A TOTAL OF          5 INNER ITERATIONS.
    ------------------------------------------------

 NO OUTPUT CONTROL FOR STRESS PERIOD   37   TIME STEP   26
 
 SOLVING FOR HEAD 
                                                   Max.-Head-Change                         Max.-Flux-Residual
  Residual-Control   Outer-Iter.   Inner-Iter.     Column Row Layer    Maximum-Head-Change  Column Row Layer    Maximum-Flux-Residual          L2-NORM 
          0                 1           2             4    7     1       0.1214677950E-01       4    7    1         0.6378894685E+00      0.1470470151E+01
          0                 2           2             4    7     1      -0.1181553492E-02       4    7    1        -0.6378915366E-01      0.1470463600E+00
          0                 3           1             4    7     1       0.8045938487E-04       4    7    1         0.4465240729E-02      0.1029317214E-01

    ------------------------------------------------
       NWT REQUIRED            3 OUTER ITERATIONS 
       AND A TOTAL OF          5 INNER ITERATIONS.
    ------------------------------------------------

 NO OUTPUT CONTROL FOR STRESS PERIOD   37   TIME STEP   27
 
 SOLVING FOR HEAD 
                                                   Max.-Head-Change                         Max.-Flux-Residual
  Residual-Control   Outer-Iter.   Inner-Iter.     Column Row Layer    Maximum-Head-Change  Column Row Layer    Maximum-Flux-Residual          L2-NORM 
          0                 1           2             4    7     1       0.1201869559E-01       4    7    1         0.6311259666E+00      0.1458510788E+01
          0                 2           2             4    7     1      -0.1169094350E-02       4    7    1        -0.6311279871E-01      0.1458503652E+00
          0                 3           1             4    7     1       0.7961096397E-04       4    7    1         0.4417895895E-02      0.1020945968E-01

    ------------------------------------------------
       NWT REQUIRED            3 OUTER ITERATIONS 
       AND A TOTAL OF          5 INNER ITERATIONS.
    ------------------------------------------------

 NO OUTPUT CONTROL FOR STRESS PERIOD   37   TIME STEP   28
 
 SOLVING FOR HEAD 
                                                   Max.-Head-Change                         Max.-Flux-Residual
  Residual-Control   Outer-Iter.   Inner-Iter.     Column Row Layer    Maximum-Head-Change  Column Row Layer    Maximum-Flux-Residual          L2-NORM 
          0                 1           2             4    7     1       0.1189264499E-01       4    7    1         0.6244703219E+00      0.1446729235E+01
          0                 2           2             4    7     1      -0.1157353503E-02       4    7    1        -0.6249585706E-01      0.1446884570E+00
          0                 3           1             4    7     1       0.7881145278E-04       4    7    1         0.4374709750E-02      0.1012812248E-01

    ------------------------------------------------
       NWT REQUIRED            3 OUTER ITERATIONS 
       AND A TOTAL OF          5 INNER ITERATIONS.
    ------------------------------------------------

 NO OUTPUT CONTROL FOR STRESS PERIOD   37   TIME STEP   29
 
 SOLVING FOR HEAD 
                                                   Max.-Head-Change                         Max.-Flux-Residual
  Residual-Control   Outer-Iter.   Inner-Iter.     Column Row Layer    Maximum-Head-Change  Column Row Layer    Maximum-Flux-Residual          L2-NORM 
          0                 1           2             4    7     1       0.1176468381E-01       4    7    1         0.6178922962E+00      0.1435116338E+01
          0                 2           2             4    7     1      -0.1144386155E-02       4    7    1        -0.6178944763E-01      0.1435110440E+00
          0                 3           1             4    7     1       0.7792842540E-04       4    7    1         0.4325261127E-02      0.1004570543E-01

    ------------------------------------------------
       NWT REQUIRED            3 OUTER ITERATIONS 
       AND A TOTAL OF          5 INNER ITERATIONS.
    ------------------------------------------------

 NO OUTPUT CONTROL FOR STRESS PERIOD   37   TIME STEP   30



 STREAM LISTING     PERIOD     37   STEP       30

 LAYER ROW COL. STREAM  RCH.  FLOW INTO     FLOW TO   FLOW OUT OF   OVRLND.     DIRECT     STREAM       STREAM     STREAM     STREAM   STREAMBED  STREAMBED
                SEG.NO.  NO.  STRM. RCH.    AQUIFER    STRM. RCH.    RUNOFF     PRECIP       ET          HEAD       DEPTH      WIDTH   CONDCTNC.   GRADIENT

   1    1    1     1     1    8.6247E+00  1.3546E-01   8.4893E+00  0.000E+00  0.000E+00  0.000E+00  1.09390E+03  8.549E-01  7.809E+00  3.514E-02  1.285E+00
   1    2    2     1     2    8.4893E+00  2.0809E-01   8.2812E+00  0.000E+00  0.000E+00  0.000E+00  1.08891E+03  8.492E-01  7.723E+00  5.406E-02  1.283E+00
   1    3    3     1     3    8.2812E+00  1.7583E-01   8.1054E+00  0.000E+00  0.000E+00  0.000E+00  1.08326E+03  8.427E-01  7.626E+00  4.576E-02  1.281E+00
   1    3    4     1     4    8.1054E+00  1.6058E-01   7.9448E+00  0.000E+00  0.000E+00  0.000E+00  1.07824E+03  8.369E-01  7.541E+00  4.185E-02  1.279E+00
   1    4    5     2     1    5.9448E+00  2.7323E-01   5.6716E+00  0.000E+00  0.000E+00  0.000E+00  1.07244E+03  5.030E-01  1.200E+01  7.800E-02  1.168E+00
   1    5    6     2     2    5.6716E+00  2.0942E-01   5.4621E+00  0.000E+00  0.000E+00  0.000E+00  1.06700E+03  4.904E-01  1.200E+01  6.000E-02  1.163E+00
   1    6    6     2     3    5.4621E+00  2.0875E-01   5.2534E+00  0.000E+00  0.000E+00  0.000E+00  1.06227E+03  4.792E-01  1.200E+01  6.000E-02  1.160E+00
   1    7    6     2     4    5.2534E+00  2.0808E-01   5.0453E+00  0.000E+00  0.000E+00  0.000E+00  1.05754E+03  4.679E-01  1.200E+01  6.000E-02  1.156E+00
   1    8    6     2     5    5.0453E+00  2.0739E-01   4.8379E+00  0.000E+00  0.000E+00  0.000E+00  1.05282E+03  4.565E-01  1.200E+01  6.000E-02  1.152E+00
   1    3    5     3     1    2.0000E+00  2.8252E-01   1.7175E+00  0.000E+00  0.000E+00  0.000E+00  1.07555E+03  1.909E+00  9.636E+00  7.227E-02  1.955E+00
   1    3    6     3     2    1.7175E+00  2.4905E-01   1.4684E+00  0.000E+00  0.000E+00  0.000E+00  1.07264E+03  1.727E+00  8.909E+00  6.682E-02  1.864E+00
   1    3    7     3     3    1.4684E+00  1.9718E-01   1.2712E+00  0.000E+00  0.000E+00  0.000E+00  1.06987E+03  1.555E+00  8.218E+00  5.547E-02  1.777E+00
   1    4    8     3     4    1.2712E+00  2.2567E-01   1.0456E+00  0.000E+00  0.000E+00  0.000E+00  1.06682E+03  1.364E+00  7.455E+00  6.709E-02  1.682E+00
   1    5    8     3     5    1.0456E+00  1.5790E-01   8.8768E-01  0.000E+00  0.000E+00  0.000E+00  1.06362E+03  1.164E+00  6.655E+00  4.991E-02  1.582E+00
   1    6    8     3     6    8.8768E-01  5.5980E-02   8.3170E-01  0.000E+00  0.000E+00  0.000E+00  1.06158E+03  1.036E+00  6.145E+00  1.844E-02  1.518E+00
   1    5   10     4     1    1.0000E+01  9.0919E-02   9.9091E+00  0.000E+00  0.000E+00  0.000E+00  1.07836E+03  6.368E-01  1.000E+01  2.500E-02  1.212E+00
   1    5    9     4     2    9.9091E+00  1.8158E-01   9.7275E+00  0.000E+00  0.000E+00  0.000E+00  1.07154E+03  6.315E-01  1.000E+01  5.000E-02  1.211E+00
   1    6    8     4     3    9.7275E+00  1.2689E-01   9.6006E+00  0.000E+00  0.000E+00  0.000E+00  1.06381E+03  6.256E-01  1.000E+01  3.500E-02  1.209E+00
   1    6    8     5     1    1.0432E+01  2.2686E-01   1.0205E+01  0.000E+00  0.000E+00  0.000E+00  1.05868E+03  6.790E-01  1.542E+01  6.166E-02  1.226E+00
   1    7    7     5     2    1.0205E+01  2.7894E-01   9.9265E+00  0.000E+00  0.000E+00  0.000E+00  1.05417E+03  6.732E-01  1.519E+01  7.594E-02  1.224E+00
   1    8    7     5     3    9.9265E+00  1.9221E-01   9.7343E+00  0.000E+00  0.000E+00  0.000E+00  1.04992E+03  6.676E-01  1.497E+01  5.241E-02  1.223E+00
   1    8    6     5     4    9.7343E+00  1.3577E-01   9.5985E+00  0.000E+00  0.000E+00  0.000E+00  1.04691E+03  6.637E-01  1.482E+01  3.706E-02  1.221E+00
   1    9    6     6     1    1.4436E+01  2.3244E-01   1.4204E+01  0.000E+00  0.000E+00  0.000E+00  1.04360E+03  8.741E-01  1.200E+01  6.000E-02  1.291E+00
   1   10    7     6     2    1.4204E+01  2.3193E-01   1.3972E+01  0.000E+00  0.000E+00  0.000E+00  1.03905E+03  8.655E-01  1.200E+01  6.000E-02  1.289E+00
   1   11    7     6     3    1.3972E+01  2.3142E-01   1.3741E+01  0.000E+00  0.000E+00  0.000E+00  1.03449E+03  8.570E-01  1.200E+01  6.000E-02  1.286E+00
   1   12    7     6     4    1.3741E+01  2.3090E-01   1.3510E+01  0.000E+00  0.000E+00  0.000E+00  1.02994E+03  8.484E-01  1.200E+01  6.000E-02  1.283E+00
   1   13    7     6     5    1.3510E+01  2.6007E-03   1.3507E+01  0.000E+00  0.000E+00  0.000E+00  1.02675E+03  8.440E-01  1.200E+01  2.400E-02  3.612E-02
   1   14    9     7     1    1.5000E+02  1.3849E+00   1.4862E+02  0.000E+00  0.000E+00  0.000E+00  1.03987E+03  2.288E+00  5.529E+01  5.593E-01  8.254E-01
   1   13    8     7     2    1.4862E+02  1.9780E+00   1.4664E+02  0.000E+00  0.000E+00  0.000E+00  1.03478E+03  2.279E+00  5.525E+01  6.147E-01  1.073E+00
   1   13    7     7     3    1.4664E+02  1.6994E+00   1.4494E+02  0.000E+00  0.000E+00  0.000E+00  1.02969E+03  2.269E+00  5.521E+01  5.584E-01  1.014E+00
   1   13    6     8     1    1.5844E+02  1.0807E+00   1.5736E+02  0.000E+00  0.000E+00  0.000E+00  1.02475E+03  2.872E+00  4.164E+01  4.243E-01  8.490E-01
   1   13    5     8     2    1.5736E+02  3.3044E-01   1.5703E+02  0.000E+00  0.000E+00  0.000E+00  1.01849E+03  2.867E+00  4.157E+01  4.236E-01  2.600E-01
   1   13    4     8     3    1.5703E+02 -1.8982E+00   1.5893E+02  0.000E+00  0.000E+00  0.000E+00  1.01225E+03  2.872E+00  4.165E+01  4.244E+00 -1.491E-01
   1   13    3     8     4    1.5893E+02 -3.3777E+00   1.6231E+02  0.000E+00  0.000E+00  0.000E+00  1.00602E+03  2.890E+00  4.191E+01  4.270E+00 -2.637E-01
   1   13    2     8     5    1.6231E+02 -2.5110E+00   1.6482E+02  0.000E+00  0.000E+00  0.000E+00  9.99785E+02  2.910E+00  4.219E+01  4.300E+00 -1.947E-01
   1   13    1     8     6    1.6482E+02 -1.9650E+00   1.6679E+02  0.000E+00  0.000E+00  0.000E+00  9.94800E+02  2.925E+00  4.241E+01  2.593E+00 -2.526E-01
   1    8    6     9     1    0.0000E+00  0.0000E+00   0.0000E+00  0.000E+00  0.000E+00  0.000E+00  1.07875E+03  0.000E+00  4.000E+00  0.000E+00  1.000E+00
   1    8    5     9     2    0.0000E+00  0.0000E+00   0.0000E+00  0.000E+00  0.000E+00  0.000E+00  1.07825E+03  0.000E+00  4.000E+00  0.000E+00  1.000E+00





UNSATURATED ZONE PACKAGE VOLUMETRIC BUDGET FOR  TIME STEP    30 STRESS PERIOD   37
  ------------------------------------------------------------------------------



     CUMULATIVE VOLUMES      L**3       RATES FOR THIS TIME STEP      L**3/T
     ------------------                 ------------------------

           IN:                                      IN:
           ---                                      ---
        INFILTRATION =  1608554472.1501          INFILTRATION =           4.4075

          OUT:                                     OUT:
          ----                                     ----
              UZF ET =  1491795126.1631                UZF ET =           0.7250
        UZF RECHARGE =      717884.2805          UZF RECHARGE =       0.0000E+00

            IN - OUT =   116041461.7065              IN - OUT =           3.6825

          STORAGE:                                 STORAGE:
          --------                                 --------
      STORAGE CHANGE =   116041438.3677        STORAGE CHANGE =           3.6825

 PERCENT DISCREPANCY IS DIFFERENCE BETWEEN IN-OUT MINUS CHANGE IN STORAGE
 DIVIDED BY THE AVERAGE OF IN AND OUT TIMES 100

 PERCENT DISCREPANCY =           0.00     PERCENT DISCREPANCY =           0.00






1
  VOLUMETRIC BUDGET FOR AGRICULTURAL FIELDS AT  END OF TIME STEP   30, STRESS PERIOD  37
  ------------------------------------------------------------------------------

     CUMULATIVE VOLUMES      L**3       RATES FOR THIS TIME STEP      L**3/T
     ------------------                 ------------------------

           IN:                                      IN:
           ---                                      ---
               AG WELLS  =   593838720.0000                 AG WELLS  =           0.0000
      DIVERSION SEGMENTS =   597329216.0000        DIVERSION SEGMENTS =           0.0000
           GW IRRIGATION =           0.0000             GW IRRIGATION =           0.0000
           SW IRRIGATION =           0.0000             SW IRRIGATION =           0.0000
        SYSTEM LOSSES GW =           0.0000          SYSTEM LOSSES GW =           0.0000
        SYSTEM LOSSES SW =           0.0000          SYSTEM LOSSES SW =           0.0000

                TOTAL IN =  1191168000.0000                  TOTAL IN =           0.0000

          OUT:                                     OUT:
          ----                                     ----
               AG WELLS  =           0.0000                 AG WELLS  =           0.0000
      DIVERSION SEGMENTS =           0.0000        DIVERSION SEGMENTS =           0.0000
           GW IRRIGATION =   593838720.0000             GW IRRIGATION =           0.0000
           SW IRRIGATION =   597340736.0000             SW IRRIGATION =           0.0000
        SYSTEM LOSSES GW =           0.0000          SYSTEM LOSSES GW =           0.0000
        SYSTEM LOSSES SW =           0.0000          SYSTEM LOSSES SW =           0.0000

               TOTAL OUT =  1191179520.0000                 TOTAL OUT =           0.0000

                IN - OUT =      -11520.0000                  IN - OUT =           0.0000

     PERCENT DISCREPANCY =          -0.00         PERCENT DISCREPANCY =           0.00



1
  VOLUMETRIC BUDGET FOR ENTIRE MODEL AT END OF TIME STEP   30, STRESS PERIOD  37
  ------------------------------------------------------------------------------

     CUMULATIVE VOLUMES      L**3       RATES FOR THIS TIME STEP      L**3/T
     ------------------                 ------------------------

           IN:                                      IN:
           ---                                      ---
             STORAGE     =   871392704.0000               STORAGE     =           3.2133
       CONSTANT HEAD     =           0.0000         CONSTANT HEAD     =           0.0000
     HEAD DEP BOUNDS     =    27320902.0000       HEAD DEP BOUNDS     =           0.2891
      STREAM LEAKAGE     =  1118283520.0000        STREAM LEAKAGE     =          11.5909
        UZF RECHARGE     =      717884.3750          UZF RECHARGE     =           0.0000
               GW ET     =           0.0000                 GW ET     =           0.0000
     SURFACE LEAKAGE     =           0.0000       SURFACE LEAKAGE     =           0.0000
           AG WELLS      =           0.0000             AG WELLS      =           0.0000

                TOTAL IN =  2017714944.0000                  TOTAL IN =          15.0933

          OUT:                                     OUT:
          ----                                     ----
             STORAGE     =   437711072.0000               STORAGE     =           5.0547
       CONSTANT HEAD     =           0.0000         CONSTANT HEAD     =           0.0000
     HEAD DEP BOUNDS     =    27276638.0000       HEAD DEP BOUNDS     =           0.2872
      STREAM LEAKAGE     =   958839424.0000        STREAM LEAKAGE     =           9.7520
        UZF RECHARGE     =           0.0000          UZF RECHARGE     =           0.0000
               GW ET     =           0.0000                 GW ET     =           0.0000
     SURFACE LEAKAGE     =           0.0000       SURFACE LEAKAGE     =           0.0000
           AG WELLS      =   593838720.0000             AG WELLS      =           0.0000

               TOTAL OUT =  2017665920.0000                 TOTAL OUT =          15.0939

                IN - OUT =       49024.0000                  IN - OUT =      -5.2261E-04

     PERCENT DISCREPANCY =           0.00         PERCENT DISCREPANCY =          -0.00






         TIME SUMMARY AT END OF TIME STEP   30 IN STRESS PERIOD   37
                    SECONDS     MINUTES      HOURS       DAYS        YEARS
                    -----------------------------------------------------------
   TIME STEP LENGTH  87667.      1461.1      24.352      1.0147     2.77799E-03
 STRESS PERIOD TIME 2.63000E+06  43833.      730.56      30.440     8.33397E-02
         TOTAL TIME 9.47660E+07 1.57943E+06  26324.      1096.8      3.0030    
1
1
                            STRESS PERIOD NO.   38, LENGTH =   2630000.    
                            -----------------------------------------------

                              NUMBER OF TIME STEPS =    30

                               MULTIPLIER FOR DELT =     1.000

                            INITIAL TIME STEP SIZE =   87666.66    

 REUSING NON-PARAMETER GHB CELLS FROM LAST STRESS PERIOD

      2 GHB CELLS

 REUSING STREAM SEGMENT DATA FROM LAST STRESS PERIOD



            AREAL INFILTRATION RATE
 READING ON UNIT   19 WITH FORMAT: (10F4.0)            

            1           2           3           4           5           6           7           8           9          10
 ........................................................................................................................
   1   1.2000E-09   0.000       0.000       0.000       0.000       0.000       0.000       0.000       0.000       0.000    
   2   2.1000E-09  2.0000E-09  8.0000E-10  8.5000E-09   0.000       0.000       0.000       0.000       0.000       0.000    
   3   5.0000E-10  1.1000E-09  8.8000E-09  5.5000E-09   0.000       0.000       0.000       0.000       0.000       0.000    
   4   8.5000E-09  1.1000E-09  1.1000E-09  1.1000E-09  2.0000E-09   0.000       0.000       0.000       0.000       0.000    
   5   8.5000E-09  1.1000E-09  1.1000E-09  1.1000E-09  1.1000E-09   0.000       0.000       0.000       0.000       0.000    
   6   8.5000E-09  5.2000E-09  2.1000E-09  1.1000E-09  1.5000E-09   0.000       0.000       0.000       0.000       0.000    
   7   8.5000E-09  5.2000E-09  2.1000E-09  1.2000E-09  2.0000E-09   0.000       0.000       0.000       0.000       0.000    
   8   5.0000E-10  5.2000E-09  2.1000E-09  1.2000E-09  5.0000E-09   0.000       0.000       0.000       0.000       0.000    
   9   5.0000E-10  5.2000E-09  2.1000E-09  1.2000E-09  5.0000E-09   0.000       0.000       0.000       0.000       0.000    
  10   5.0000E-10  5.2000E-09  2.1000E-09  1.2000E-09  5.8000E-09   0.000       0.000       0.000       0.000       0.000    
  11   1.0000E-10  1.1000E-09  1.1000E-09  1.2000E-09  5.0000E-09   0.000       0.000       0.000       0.000       0.000    
  12   1.1000E-09  1.1000E-09  1.1000E-09  1.1000E-09  2.0000E-09   0.000       0.000       0.000       0.000       0.000    
  13   1.1000E-09  2.2000E-09  2.2000E-09  2.1000E-09  1.0000E-09   0.000       0.000       0.000       0.000       0.000    
  14   2.0000E-10  5.5000E-09  5.5000E-09  5.2000E-09  1.0000E-09   0.000       0.000       0.000       0.000       0.000    
  15    0.000      8.8000E-09  8.8000E-09   0.000       0.000       0.000       0.000       0.000       0.000       0.000    

                  ET RATE =  5.000000E-10

 USING ET EXTINCTION DEPTH FROM PREVIOUS STRESS PERIOD. CURRENT PERIOD IS:      38

 USING EXTINCTION WATER CONTENT FROM PREVIOUS STRESS PERIOD. CURRENT PERIOD IS:      38

 USING AIR ENTRY PRESSURE FROM PREVIOUS STRESS PERIOD. CURRENT PERIOD IS:      38

 USING ROOT PRESSURE HEAD FROM PREVIOUS STRESS PERIOD. CURRENT PERIOD IS:      38

 USING ROOT ACTIVITY FROM PREVIOUS STRESS PERIOD. CURRENT PERIOD IS:      38

 PROCESSING AG STRESS PERIOD DATA

 READING AG STRESS PERIOD DATA

 READING IRRIGATION SEGMENT

 READING IRRIGATION WELL

 READING SUPPLEMENTAL WELL

 END PROCESSING AG STRESS PERIOD DATA OPTIONS
 
 SOLVING FOR HEAD 
                                                   Max.-Head-Change                         Max.-Flux-Residual
  Residual-Control   Outer-Iter.   Inner-Iter.     Column Row Layer    Maximum-Head-Change  Column Row Layer    Maximum-Flux-Residual          L2-NORM 
          0                 1           2             4    7     1       0.1163961293E-01       4    7    1         0.6112780751E+00      0.1423625852E+01
          0                 2           2             4    7     1      -0.1132220084E-02       4    7    1        -0.6112801976E-01      0.1423620488E+00
          0                 3           1             4    7     1       0.7709996221E-04       4    7    1         0.4278961238E-02      0.9965283272E-02

    ------------------------------------------------
       NWT REQUIRED            3 OUTER ITERATIONS 
       AND A TOTAL OF          5 INNER ITERATIONS.
    ------------------------------------------------

 NO OUTPUT CONTROL FOR STRESS PERIOD   38   TIME STEP    1
 
 SOLVING FOR HEAD 
                                                   Max.-Head-Change                         Max.-Flux-Residual
  Residual-Control   Outer-Iter.   Inner-Iter.     Column Row Layer    Maximum-Head-Change  Column Row Layer    Maximum-Flux-Residual          L2-NORM 
          0                 1           2             4    7     1       0.1151655639E-01       4    7    1         0.6047713241E+00      0.1414450174E+01
          0                 2           2             4    7     1      -0.1120249956E-02       4    7    1        -0.6047733907E-01      0.1414412950E+00
          0                 3           1             4    7     1       0.7628484159E-04       4    7    1         0.4233413616E-02      0.9900538014E-02

    ------------------------------------------------
       NWT REQUIRED            3 OUTER ITERATIONS 
       AND A TOTAL OF          5 INNER ITERATIONS.
    ------------------------------------------------

 NO OUTPUT CONTROL FOR STRESS PERIOD   38   TIME STEP    2
 
 SOLVING FOR HEAD 
                                                   Max.-Head-Change                         Max.-Flux-Residual
  Residual-Control   Outer-Iter.   Inner-Iter.     Column Row Layer    Maximum-Head-Change  Column Row Layer    Maximum-Flux-Residual          L2-NORM 
          0                 1           2             4    7     1       0.1139572053E-01       4    7    1         0.5983836719E+00      0.1406380156E+01
          0                 2           2             4    7     1      -0.1108495842E-02       4    7    1        -0.5983856848E-01      0.1406282821E+00
          0                 3           1             4    7     1       0.7548443057E-04       4    7    1         0.4188699709E-02      0.9843193708E-02

    ------------------------------------------------
       NWT REQUIRED            3 OUTER ITERATIONS 
       AND A TOTAL OF          5 INNER ITERATIONS.
    ------------------------------------------------

 NO OUTPUT CONTROL FOR STRESS PERIOD   38   TIME STEP    3
 
 SOLVING FOR HEAD 
                                                   Max.-Head-Change                         Max.-Flux-Residual
  Residual-Control   Outer-Iter.   Inner-Iter.     Column Row Layer    Maximum-Head-Change  Column Row Layer    Maximum-Flux-Residual          L2-NORM 
          0                 1           2             4    7     1       0.1127690887E-01       4    7    1         0.5921038283E+00      0.1395154827E+01
          0                 2           2             4    7     1      -0.1096938630E-02       4    7    1        -0.5921057890E-01      0.1395068900E+00
          0                 3           1             4    7     1       0.7469742780E-04       4    7    1         0.4144740444E-02      0.9764724655E-02

    ------------------------------------------------
       NWT REQUIRED            3 OUTER ITERATIONS 
       AND A TOTAL OF          5 INNER ITERATIONS.
    ------------------------------------------------

 NO OUTPUT CONTROL FOR STRESS PERIOD   38   TIME STEP    4
 
 SOLVING FOR HEAD 
                                                   Max.-Head-Change                         Max.-Flux-Residual
  Residual-Control   Outer-Iter.   Inner-Iter.     Column Row Layer    Maximum-Head-Change  Column Row Layer    Maximum-Flux-Residual          L2-NORM 
          0                 1           2             4    7     1       0.1116007551E-01       4    7    1         0.5859289361E+00      0.1384119349E+01
          0                 2           2             4    7     1      -0.1085573856E-02       4    7    1        -0.5859308462E-01      0.1384041924E+00
          0                 3           1             4    7     1       0.7392352964E-04       4    7    1         0.4101515876E-02      0.9687578666E-02

    ------------------------------------------------
       NWT REQUIRED            3 OUTER ITERATIONS 
       AND A TOTAL OF          5 INNER ITERATIONS.
    ------------------------------------------------

 NO OUTPUT CONTROL FOR STRESS PERIOD   38   TIME STEP    5
 
 SOLVING FOR HEAD 
                                                   Max.-Head-Change                         Max.-Flux-Residual
  Residual-Control   Outer-Iter.   Inner-Iter.     Column Row Layer    Maximum-Head-Change  Column Row Layer    Maximum-Flux-Residual          L2-NORM 
          0                 1           2             4    7     1       0.1104516971E-01       4    7    1         0.5798566160E+00      0.1373267430E+01
          0                 2           2             4    7     1      -0.1074396583E-02       4    7    1        -0.5798584772E-01      0.1373202213E+00
          0                 3           1             4    7     1       0.7316239952E-04       4    7    1         0.4059009333E-02      0.9611811276E-02

    ------------------------------------------------
       NWT REQUIRED            3 OUTER ITERATIONS 
       AND A TOTAL OF          5 INNER ITERATIONS.
    ------------------------------------------------

 NO OUTPUT CONTROL FOR STRESS PERIOD   38   TIME STEP    6
 
 SOLVING FOR HEAD 
                                                   Max.-Head-Change                         Max.-Flux-Residual
  Residual-Control   Outer-Iter.   Inner-Iter.     Column Row Layer    Maximum-Head-Change  Column Row Layer    Maximum-Flux-Residual          L2-NORM 
          0                 1           2             4    7     1       0.1093214245E-01       4    7    1         0.5738842364E+00      0.1362579634E+01
          0                 2           2             4    7     1      -0.1063402043E-02       4    7    1        -0.5738860501E-01      0.1362517750E+00
          0                 3           1             4    7     1       0.7241371273E-04       4    7    1         0.4017202368E-02      0.9537048719E-02

    ------------------------------------------------
       NWT REQUIRED            3 OUTER ITERATIONS 
       AND A TOTAL OF          5 INNER ITERATIONS.
    ------------------------------------------------

 NO OUTPUT CONTROL FOR STRESS PERIOD   38   TIME STEP    7
 
 SOLVING FOR HEAD 
                                                   Max.-Head-Change                         Max.-Flux-Residual
  Residual-Control   Outer-Iter.   Inner-Iter.     Column Row Layer    Maximum-Head-Change  Column Row Layer    Maximum-Flux-Residual          L2-NORM 
          0                 1           2             4    7     1       0.1082108596E-01       4    7    1         0.5680165864E+00      0.1352069064E+01
          0                 2           2             4    7     1      -0.1052599207E-02       4    7    1        -0.5680183545E-01      0.1352016897E+00
          0                 3           1             4    7     1       0.7167808014E-04       4    7    1         0.3976128517E-02      0.9463537899E-02

    ------------------------------------------------
       NWT REQUIRED            3 OUTER ITERATIONS 
       AND A TOTAL OF          5 INNER ITERATIONS.
    ------------------------------------------------

 NO OUTPUT CONTROL FOR STRESS PERIOD   38   TIME STEP    8
 
 SOLVING FOR HEAD 
                                                   Max.-Head-Change                         Max.-Flux-Residual
  Residual-Control   Outer-Iter.   Inner-Iter.     Column Row Layer    Maximum-Head-Change  Column Row Layer    Maximum-Flux-Residual          L2-NORM 
          0                 1           2             4    7     1       0.1071180994E-01       4    7    1         0.5622437871E+00      0.1341716324E+01
          0                 2           2             4    7     1      -0.1041969565E-02       4    7    1        -0.5622455110E-01      0.1341666056E+00
          0                 3           1             4    7     1       0.7095424215E-04       4    7    1         0.3935718657E-02      0.9391184826E-02

    ------------------------------------------------
       NWT REQUIRED            3 OUTER ITERATIONS 
       AND A TOTAL OF          5 INNER ITERATIONS.
    ------------------------------------------------

 NO OUTPUT CONTROL FOR STRESS PERIOD   38   TIME STEP    9
 
 SOLVING FOR HEAD 
                                                   Max.-Head-Change                         Max.-Flux-Residual
  Residual-Control   Outer-Iter.   Inner-Iter.     Column Row Layer    Maximum-Head-Change  Column Row Layer    Maximum-Flux-Residual          L2-NORM 
          0                 1           2             4    7     1       0.1060440711E-01       4    7    1         0.5565706331E+00      0.1331527582E+01
          0                 2           2             4    7     1      -0.1031522134E-02       4    7    1        -0.5565723140E-01      0.1331481953E+00
          0                 3           1             4    7     1       0.7024281117E-04       4    7    1         0.3896006295E-02      0.9319942541E-02

    ------------------------------------------------
       NWT REQUIRED            3 OUTER ITERATIONS 
       AND A TOTAL OF          5 INNER ITERATIONS.
    ------------------------------------------------

 NO OUTPUT CONTROL FOR STRESS PERIOD   38   TIME STEP   10
 
 SOLVING FOR HEAD 
                                                   Max.-Head-Change                         Max.-Flux-Residual
  Residual-Control   Outer-Iter.   Inner-Iter.     Column Row Layer    Maximum-Head-Change  Column Row Layer    Maximum-Flux-Residual          L2-NORM 
          0                 1           2             4    7     1       0.1049869974E-01       4    7    1         0.5509872699E+00      0.1321495274E+01
          0                 2           2             4    7     1      -0.1021239629E-02       4    7    1        -0.5509889093E-01      0.1321454224E+00
          0                 3           1             4    7     1       0.6954261129E-04       4    7    1         0.3856922489E-02      0.9249782148E-02

    ------------------------------------------------
       NWT REQUIRED            3 OUTER ITERATIONS 
       AND A TOTAL OF          5 INNER ITERATIONS.
    ------------------------------------------------

 NO OUTPUT CONTROL FOR STRESS PERIOD   38   TIME STEP   11
 
 SOLVING FOR HEAD 
                                                   Max.-Head-Change                         Max.-Flux-Residual
  Residual-Control   Outer-Iter.   Inner-Iter.     Column Row Layer    Maximum-Head-Change  Column Row Layer    Maximum-Flux-Residual          L2-NORM 
          0                 1           2             4    7     1       0.1039464382E-01       4    7    1         0.5454918143E+00      0.1311602653E+01
          0                 2           2             4    7     1      -0.1011117765E-02       4    7    1        -0.5454934133E-01      0.1311565312E+00
          0                 3           1             4    7     1       0.6885335056E-04       4    7    1         0.3818454038E-02      0.9180630584E-02

    ------------------------------------------------
       NWT REQUIRED            3 OUTER ITERATIONS 
       AND A TOTAL OF          5 INNER ITERATIONS.
    ------------------------------------------------

 NO OUTPUT CONTROL FOR STRESS PERIOD   38   TIME STEP   12
 
 SOLVING FOR HEAD 
                                                   Max.-Head-Change                         Max.-Flux-Residual
  Residual-Control   Outer-Iter.   Inner-Iter.     Column Row Layer    Maximum-Head-Change  Column Row Layer    Maximum-Flux-Residual          L2-NORM 
          0                 1           2             4    7     1       0.1029233591E-01       4    7    1         0.5400893139E+00      0.1301861346E+01
          0                 2           2             4    7     1      -0.1001165938E-02       4    7    1        -0.5400908738E-01      0.1301827711E+00
          0                 3           1             4    7     1       0.6817566871E-04       4    7    1         0.3780636279E-02      0.9112489793E-02

    ------------------------------------------------
       NWT REQUIRED            3 OUTER ITERATIONS 
       AND A TOTAL OF          5 INNER ITERATIONS.
    ------------------------------------------------

 NO OUTPUT CONTROL FOR STRESS PERIOD   38   TIME STEP   13
 
 SOLVING FOR HEAD 
                                                   Max.-Head-Change                         Max.-Flux-Residual
  Residual-Control   Outer-Iter.   Inner-Iter.     Column Row Layer    Maximum-Head-Change  Column Row Layer    Maximum-Flux-Residual          L2-NORM 
          0                 1           2             4    7     1       0.1019173472E-01       4    7    1         0.5347774460E+00      0.1292262154E+01
          0                 2           2             4    7     1      -0.9913801287E-03       4    7    1        -0.5347789676E-01      0.1292231580E+00
          0                 3           1             4    7     1       0.6750929192E-04       4    7    1         0.3743452949E-02      0.9045356768E-02

    ------------------------------------------------
       NWT REQUIRED            3 OUTER ITERATIONS 
       AND A TOTAL OF          5 INNER ITERATIONS.
    ------------------------------------------------

 NO OUTPUT CONTROL FOR STRESS PERIOD   38   TIME STEP   14
 
 SOLVING FOR HEAD 
                                                   Max.-Head-Change                         Max.-Flux-Residual
  Residual-Control   Outer-Iter.   Inner-Iter.     Column Row Layer    Maximum-Head-Change  Column Row Layer    Maximum-Flux-Residual          L2-NORM 
          0                 1           2             4    7     1       0.1009265949E-01       4    7    1         0.5295467372E+00      0.1282799067E+01
          0                 2           2             4    7     1      -0.9817427569E-03       4    7    1        -0.5295482224E-01      0.1282770953E+00
          0                 3           1             4    7     1       0.6685302309E-04       4    7    1         0.3706837760E-02      0.8979151445E-02

    ------------------------------------------------
       NWT REQUIRED            3 OUTER ITERATIONS 
       AND A TOTAL OF          5 INNER ITERATIONS.
    ------------------------------------------------

 NO OUTPUT CONTROL FOR STRESS PERIOD   38   TIME STEP   15
 
 SOLVING FOR HEAD 
                                                   Max.-Head-Change                         Max.-Flux-Residual
  Residual-Control   Outer-Iter.   Inner-Iter.     Column Row Layer    Maximum-Head-Change  Column Row Layer    Maximum-Flux-Residual          L2-NORM 
          0                 1           2             4    7     1       0.9995077591E-02       4    7    1         0.5243951469E+00      0.1273473517E+01
          0                 2           2             4    7     1      -0.9722506455E-03       4    7    1        -0.5243965963E-01      0.1273447677E+00
          0                 3           1             4    7     1       0.6620664543E-04       4    7    1         0.3670776382E-02      0.8913864688E-02

    ------------------------------------------------
       NWT REQUIRED            3 OUTER ITERATIONS 
       AND A TOTAL OF          5 INNER ITERATIONS.
    ------------------------------------------------

 NO OUTPUT CONTROL FOR STRESS PERIOD   38   TIME STEP   16
 
 SOLVING FOR HEAD 
                                                   Max.-Head-Change                         Max.-Flux-Residual
  Residual-Control   Outer-Iter.   Inner-Iter.     Column Row Layer    Maximum-Head-Change  Column Row Layer    Maximum-Flux-Residual          L2-NORM 
          0                 1           2             4    7     1       0.9899094785E-02       4    7    1         0.5193283150E+00      0.1264284403E+01
          0                 2           2             4    7     1      -0.9629140846E-03       4    7    1        -0.5193297296E-01      0.1264260529E+00
          0                 3           1             4    7     1       0.6557086091E-04       4    7    1         0.3635308334E-02      0.8849576708E-02

    ------------------------------------------------
       NWT REQUIRED            3 OUTER ITERATIONS 
       AND A TOTAL OF          5 INNER ITERATIONS.
    ------------------------------------------------

 NO OUTPUT CONTROL FOR STRESS PERIOD   38   TIME STEP   17
 
 SOLVING FOR HEAD 
                                                   Max.-Head-Change                         Max.-Flux-Residual
  Residual-Control   Outer-Iter.   Inner-Iter.     Column Row Layer    Maximum-Head-Change  Column Row Layer    Maximum-Flux-Residual          L2-NORM 
          0                 1           2             4    7     1       0.9804532015E-02       4    7    1         0.5143370619E+00      0.1255219785E+01
          0                 2           2             4    7     1      -0.9537156561E-03       4    7    1        -0.5143384431E-01      0.1255197788E+00
          0                 3           1             4    7     1       0.6494448261E-04       4    7    1         0.3600369343E-02      0.8786187763E-02

    ------------------------------------------------
       NWT REQUIRED            3 OUTER ITERATIONS 
       AND A TOTAL OF          5 INNER ITERATIONS.
    ------------------------------------------------

 NO OUTPUT CONTROL FOR STRESS PERIOD   38   TIME STEP   18
 
 SOLVING FOR HEAD 
                                                   Max.-Head-Change                         Max.-Flux-Residual
  Residual-Control   Outer-Iter.   Inner-Iter.     Column Row Layer    Maximum-Head-Change  Column Row Layer    Maximum-Flux-Residual          L2-NORM 
          0                 1           2             4    7     1       0.9711495180E-02       4    7    1         0.5094267673E+00      0.1246282531E+01
          0                 2           2             4    7     1      -0.9446656607E-03       4    7    1        -0.5094281158E-01      0.1246262035E+00
          0                 3           1             4    7     1       0.6432821192E-04       4    7    1         0.3565997073E-02      0.8723620434E-02

    ------------------------------------------------
       NWT REQUIRED            3 OUTER ITERATIONS 
       AND A TOTAL OF          5 INNER ITERATIONS.
    ------------------------------------------------

 NO OUTPUT CONTROL FOR STRESS PERIOD   38   TIME STEP   19
 
 SOLVING FOR HEAD 
                                                   Max.-Head-Change                         Max.-Flux-Residual
  Residual-Control   Outer-Iter.   Inner-Iter.     Column Row Layer    Maximum-Head-Change  Column Row Layer    Maximum-Flux-Residual          L2-NORM 
          0                 1           2             4    7     1       0.9619946476E-02       4    7    1         0.5045955902E+00      0.1237467055E+01
          0                 2           2             4    7     1      -0.9357604217E-03       4    7    1        -0.5045969071E-01      0.1237448060E+00
          0                 3           1             4    7     1       0.6372179867E-04       4    7    1         0.3532178629E-02      0.8661966919E-02

    ------------------------------------------------
       NWT REQUIRED            3 OUTER ITERATIONS 
       AND A TOTAL OF          5 INNER ITERATIONS.
    ------------------------------------------------

 NO OUTPUT CONTROL FOR STRESS PERIOD   38   TIME STEP   20
 
 SOLVING FOR HEAD 
                                                   Max.-Head-Change                         Max.-Flux-Residual
  Residual-Control   Outer-Iter.   Inner-Iter.     Column Row Layer    Maximum-Head-Change  Column Row Layer    Maximum-Flux-Residual          L2-NORM 
          0                 1           2             4    7     1       0.9529715620E-02       4    7    1         0.4998342381E+00      0.1228774888E+01
          0                 2           2             4    7     1      -0.9269833747E-03       4    7    1        -0.4998355245E-01      0.1228757526E+00
          0                 3           1             4    7     1       0.6312411499E-04       4    7    1         0.3498848974E-02      0.8601154567E-02

    ------------------------------------------------
       NWT REQUIRED            3 OUTER ITERATIONS 
       AND A TOTAL OF          5 INNER ITERATIONS.
    ------------------------------------------------

 NO OUTPUT CONTROL FOR STRESS PERIOD   38   TIME STEP   21
 
 SOLVING FOR HEAD 
                                                   Max.-Head-Change                         Max.-Flux-Residual
  Residual-Control   Outer-Iter.   Inner-Iter.     Column Row Layer    Maximum-Head-Change  Column Row Layer    Maximum-Flux-Residual          L2-NORM 
          0                 1           2             4    7     1       0.9440911464E-02       4    7    1         0.4951485468E+00      0.1220209421E+01
          0                 2           2             4    7     1      -0.9183451070E-03       4    7    1        -0.4951498031E-01      0.1220193114E+00
          0                 3           1             4    7     1       0.6253588097E-04       4    7    1         0.3466048922E-02      0.8541185009E-02

    ------------------------------------------------
       NWT REQUIRED            3 OUTER ITERATIONS 
       AND A TOTAL OF          5 INNER ITERATIONS.
    ------------------------------------------------

 NO OUTPUT CONTROL FOR STRESS PERIOD   38   TIME STEP   22
 
 SOLVING FOR HEAD 
                                                   Max.-Head-Change                         Max.-Flux-Residual
  Residual-Control   Outer-Iter.   Inner-Iter.     Column Row Layer    Maximum-Head-Change  Column Row Layer    Maximum-Flux-Residual          L2-NORM 
          0                 1           2             4    7     1       0.9353498361E-02       4    7    1         0.4905368278E+00      0.1211750880E+01
          0                 2           2             4    7     1      -0.9098421534E-03       4    7    1        -0.4905380551E-01      0.1211735556E+00
          0                 3           1             4    7     1       0.6195686230E-04       4    7    1         0.3433766721E-02      0.8482138755E-02

    ------------------------------------------------
       NWT REQUIRED            3 OUTER ITERATIONS 
       AND A TOTAL OF          5 INNER ITERATIONS.
    ------------------------------------------------

 NO OUTPUT CONTROL FOR STRESS PERIOD   38   TIME STEP   23
 
 SOLVING FOR HEAD 
                                                   Max.-Head-Change                         Max.-Flux-Residual
  Residual-Control   Outer-Iter.   Inner-Iter.     Column Row Layer    Maximum-Head-Change  Column Row Layer    Maximum-Flux-Residual          L2-NORM 
          0                 1           2             4    7     1       0.9267309772E-02       4    7    1         0.4859899000E+00      0.1203413025E+01
          0                 2           2             4    7     1      -0.9014583122E-03       4    7    1        -0.4859910992E-01      0.1203398771E+00
          0                 3           1             4    7     1       0.6138595382E-04       4    7    1         0.3401938031E-02      0.8423660688E-02

    ------------------------------------------------
       NWT REQUIRED            3 OUTER ITERATIONS 
       AND A TOTAL OF          5 INNER ITERATIONS.
    ------------------------------------------------

 NO OUTPUT CONTROL FOR STRESS PERIOD   38   TIME STEP   24
 
 SOLVING FOR HEAD 
                                                   Max.-Head-Change                         Max.-Flux-Residual
  Residual-Control   Outer-Iter.   Inner-Iter.     Column Row Layer    Maximum-Head-Change  Column Row Layer    Maximum-Flux-Residual          L2-NORM 
          0                 1           2             4    7     1       0.9182453708E-02       4    7    1         0.4815137942E+00      0.1195177876E+01
          0                 2           2             4    7     1      -0.8932040907E-03       4    7    1        -0.4815149662E-01      0.1195161628E+00
          0                 3           1             4    7     1       0.6082387220E-04       4    7    1         0.3370605104E-02      0.8365967779E-02

    ------------------------------------------------
       NWT REQUIRED            3 OUTER ITERATIONS 
       AND A TOTAL OF          5 INNER ITERATIONS.
    ------------------------------------------------

 NO OUTPUT CONTROL FOR STRESS PERIOD   38   TIME STEP   25
 
 SOLVING FOR HEAD 
                                                   Max.-Head-Change                         Max.-Flux-Residual
  Residual-Control   Outer-Iter.   Inner-Iter.     Column Row Layer    Maximum-Head-Change  Column Row Layer    Maximum-Flux-Residual          L2-NORM 
          0                 1           2             4    7     1       0.9098902296E-02       4    7    1         0.4771067777E+00      0.1187062274E+01
          0                 2           2             4    7     1      -0.8850767773E-03       4    7    1        -0.4771079231E-01      0.1187049869E+00
          0                 3           1             4    7     1       0.6027043305E-04       4    7    1         0.3339755825E-02      0.8309237362E-02

    ------------------------------------------------
       NWT REQUIRED            3 OUTER ITERATIONS 
       AND A TOTAL OF          5 INNER ITERATIONS.
    ------------------------------------------------

 NO OUTPUT CONTROL FOR STRESS PERIOD   38   TIME STEP   26
 
 SOLVING FOR HEAD 
                                                   Max.-Head-Change                         Max.-Flux-Residual
  Residual-Control   Outer-Iter.   Inner-Iter.     Column Row Layer    Maximum-Head-Change  Column Row Layer    Maximum-Flux-Residual          L2-NORM 
          0                 1           2             4    7     1       0.9016625315E-02       4    7    1         0.4727674057E+00      0.1179056630E+01
          0                 2           2             4    7     1      -0.8770734325E-03       4    7    1        -0.4727685252E-01      0.1179045126E+00
          0                 3           1             4    7     1       0.5972543533E-04       4    7    1         0.3309380058E-02      0.8253206170E-02

    ------------------------------------------------
       NWT REQUIRED            3 OUTER ITERATIONS 
       AND A TOTAL OF          5 INNER ITERATIONS.
    ------------------------------------------------

 NO OUTPUT CONTROL FOR STRESS PERIOD   38   TIME STEP   27
 
 SOLVING FOR HEAD 
                                                   Max.-Head-Change                         Max.-Flux-Residual
  Residual-Control   Outer-Iter.   Inner-Iter.     Column Row Layer    Maximum-Head-Change  Column Row Layer    Maximum-Flux-Residual          L2-NORM 
          0                 1           2             4    7     1       0.8935455516E-02       4    7    1         0.4684867776E+00      0.1171151276E+01
          0                 2           2             4    7     1      -0.8691777872E-03       4    7    1        -0.4684878721E-01      0.1171140348E+00
          0                 3           1             4    7     1       0.5918777105E-04       4    7    1         0.3279415482E-02      0.8197914645E-02

    ------------------------------------------------
       NWT REQUIRED            3 OUTER ITERATIONS 
       AND A TOTAL OF          5 INNER ITERATIONS.
    ------------------------------------------------

 NO OUTPUT CONTROL FOR STRESS PERIOD   38   TIME STEP   28
 
 SOLVING FOR HEAD 
                                                   Max.-Head-Change                         Max.-Flux-Residual
  Residual-Control   Outer-Iter.   Inner-Iter.     Column Row Layer    Maximum-Head-Change  Column Row Layer    Maximum-Flux-Residual          L2-NORM 
          0                 1           2             4    7     1       0.8855510541E-02       4    7    1         0.4642708885E+00      0.1163353260E+01
          0                 2           2             4    7     1      -0.8614012853E-03       4    7    1        -0.4642719586E-01      0.1163342715E+00
          0                 3           1             4    7     1       0.5865822064E-04       4    7    1         0.3249904110E-02      0.8143299294E-02

    ------------------------------------------------
       NWT REQUIRED            3 OUTER ITERATIONS 
       AND A TOTAL OF          5 INNER ITERATIONS.
    ------------------------------------------------

 NO OUTPUT CONTROL FOR STRESS PERIOD   38   TIME STEP   29
 
 SOLVING FOR HEAD 
                                                   Max.-Head-Change                         Max.-Flux-Residual
  Residual-Control   Outer-Iter.   Inner-Iter.     Column Row Layer    Maximum-Head-Change  Column Row Layer    Maximum-Flux-Residual          L2-NORM 
          0                 1           2             4    7     1       0.8776760885E-02       4    7    1         0.4601185048E+00      0.1155655872E+01
          0                 2           2             4    7     1      -0.8537410557E-03       4    7    1        -0.4601195512E-01      0.1155643931E+00
          0                 3           1             4    7     1       0.5813658778E-04       4    7    1         0.3220837255E-02      0.8089378512E-02

    ------------------------------------------------
       NWT REQUIRED            3 OUTER ITERATIONS 
       AND A TOTAL OF          5 INNER ITERATIONS.
    ------------------------------------------------

 NO OUTPUT CONTROL FOR STRESS PERIOD   38   TIME STEP   30



 STREAM LISTING     PERIOD     38   STEP       30

 LAYER ROW COL. STREAM  RCH.  FLOW INTO     FLOW TO   FLOW OUT OF   OVRLND.     DIRECT     STREAM       STREAM     STREAM     STREAM   STREAMBED  STREAMBED
                SEG.NO.  NO.  STRM. RCH.    AQUIFER    STRM. RCH.    RUNOFF     PRECIP       ET          HEAD       DEPTH      WIDTH   CONDCTNC.   GRADIENT

   1    1    1     1     1    7.1248E+00  1.2038E-01   7.0044E+00  0.000E+00  0.000E+00  0.000E+00  1.09385E+03  8.024E-01  7.035E+00  3.166E-02  1.267E+00
   1    2    2     1     2    7.0044E+00  1.8491E-01   6.8195E+00  0.000E+00  0.000E+00  0.000E+00  1.08886E+03  7.976E-01  6.956E+00  4.869E-02  1.266E+00
   1    3    3     1     3    6.8195E+00  1.5635E-01   6.6631E+00  0.000E+00  0.000E+00  0.000E+00  1.08321E+03  7.928E-01  6.870E+00  4.122E-02  1.264E+00
   1    3    4     1     4    6.6631E+00  1.4286E-01   6.5203E+00  0.000E+00  0.000E+00  0.000E+00  1.07820E+03  7.886E-01  6.794E+00  3.771E-02  1.263E+00
   1    4    5     2     1    4.5203E+00  2.6715E-01   4.2531E+00  0.000E+00  0.000E+00  0.000E+00  1.07236E+03  4.250E-01  1.200E+01  7.800E-02  1.142E+00
   1    5    6     2     2    4.2531E+00  2.0467E-01   4.0485E+00  0.000E+00  0.000E+00  0.000E+00  1.06692E+03  4.112E-01  1.200E+01  6.000E-02  1.137E+00
   1    6    6     2     3    4.0485E+00  2.0393E-01   3.8445E+00  0.000E+00  0.000E+00  0.000E+00  1.06219E+03  3.989E-01  1.200E+01  6.000E-02  1.133E+00
   1    7    6     2     4    3.8445E+00  2.0319E-01   3.6413E+00  0.000E+00  0.000E+00  0.000E+00  1.05746E+03  3.864E-01  1.200E+01  6.000E-02  1.129E+00
   1    8    6     2     5    3.6413E+00  2.0242E-01   3.4389E+00  0.000E+00  0.000E+00  0.000E+00  1.05273E+03  3.737E-01  1.200E+01  6.000E-02  1.125E+00
   1    3    5     3     1    2.0000E+00  2.8252E-01   1.7175E+00  0.000E+00  0.000E+00  0.000E+00  1.07555E+03  1.909E+00  9.636E+00  7.227E-02  1.955E+00
   1    3    6     3     2    1.7175E+00  2.4905E-01   1.4684E+00  0.000E+00  0.000E+00  0.000E+00  1.07264E+03  1.727E+00  8.909E+00  6.682E-02  1.864E+00
   1    3    7     3     3    1.4684E+00  1.9718E-01   1.2712E+00  0.000E+00  0.000E+00  0.000E+00  1.06987E+03  1.555E+00  8.218E+00  5.547E-02  1.777E+00
   1    4    8     3     4    1.2712E+00  2.2567E-01   1.0456E+00  0.000E+00  0.000E+00  0.000E+00  1.06682E+03  1.364E+00  7.455E+00  6.709E-02  1.682E+00
   1    5    8     3     5    1.0456E+00  1.5790E-01   8.8768E-01  0.000E+00  0.000E+00  0.000E+00  1.06362E+03  1.164E+00  6.655E+00  4.991E-02  1.582E+00
   1    6    8     3     6    8.8768E-01  5.5980E-02   8.3170E-01  0.000E+00  0.000E+00  0.000E+00  1.06158E+03  1.036E+00  6.145E+00  1.844E-02  1.518E+00
   1    5   10     4     1    1.0000E+01  9.0919E-02   9.9091E+00  0.000E+00  0.000E+00  0.000E+00  1.07836E+03  6.368E-01  1.000E+01  2.500E-02  1.212E+00
   1    5    9     4     2    9.9091E+00  1.8158E-01   9.7275E+00  0.000E+00  0.000E+00  0.000E+00  1.07154E+03  6.315E-01  1.000E+01  5.000E-02  1.211E+00
   1    6    8     4     3    9.7275E+00  1.2689E-01   9.6006E+00  0.000E+00  0.000E+00  0.000E+00  1.06381E+03  6.256E-01  1.000E+01  3.500E-02  1.209E+00
   1    6    8     5     1    1.0432E+01  2.2686E-01   1.0205E+01  0.000E+00  0.000E+00  0.000E+00  1.05868E+03  6.790E-01  1.542E+01  6.166E-02  1.226E+00
   1    7    7     5     2    1.0205E+01  2.7894E-01   9.9265E+00  0.000E+00  0.000E+00  0.000E+00  1.05417E+03  6.732E-01  1.519E+01  7.594E-02  1.224E+00
   1    8    7     5     3    9.9265E+00  1.9221E-01   9.7343E+00  0.000E+00  0.000E+00  0.000E+00  1.04992E+03  6.676E-01  1.497E+01  5.241E-02  1.223E+00
   1    8    6     5     4    9.7343E+00  1.3577E-01   9.5985E+00  0.000E+00  0.000E+00  0.000E+00  1.04691E+03  6.637E-01  1.482E+01  3.706E-02  1.221E+00
   1    9    6     6     1    1.3037E+01  2.2931E-01   1.2808E+01  0.000E+00  0.000E+00  0.000E+00  1.04355E+03  8.218E-01  1.200E+01  6.000E-02  1.274E+00
   1   10    7     6     2    1.2808E+01  2.2878E-01   1.2579E+01  0.000E+00  0.000E+00  0.000E+00  1.03899E+03  8.131E-01  1.200E+01  6.000E-02  1.271E+00
   1   11    7     6     3    1.2579E+01  2.2825E-01   1.2351E+01  0.000E+00  0.000E+00  0.000E+00  1.03444E+03  8.042E-01  1.200E+01  6.000E-02  1.268E+00
   1   12    7     6     4    1.2351E+01  2.2772E-01   1.2123E+01  0.000E+00  0.000E+00  0.000E+00  1.02989E+03  7.954E-01  1.200E+01  6.000E-02  1.265E+00
   1   13    7     6     5    1.2123E+01  1.5760E-03   1.2122E+01  0.000E+00  0.000E+00  0.000E+00  1.02670E+03  7.909E-01  1.200E+01  2.400E-02  2.189E-02
   1   14    9     7     1    1.5000E+02  1.3857E+00   1.4861E+02  0.000E+00  0.000E+00  0.000E+00  1.03987E+03  2.288E+00  5.529E+01  5.593E-01  8.259E-01
   1   13    8     7     2    1.4861E+02  1.9806E+00   1.4663E+02  0.000E+00  0.000E+00  0.000E+00  1.03478E+03  2.279E+00  5.525E+01  6.147E-01  1.074E+00
   1   13    7     7     3    1.4663E+02  1.7051E+00   1.4493E+02  0.000E+00  0.000E+00  0.000E+00  1.02969E+03  2.269E+00  5.521E+01  5.584E-01  1.018E+00
   1   13    6     8     1    1.5705E+02  1.0796E+00   1.5597E+02  0.000E+00  0.000E+00  0.000E+00  1.02474E+03  2.862E+00  4.150E+01  4.229E-01  8.510E-01
   1   13    5     8     2    1.5597E+02  3.3158E-01   1.5564E+02  0.000E+00  0.000E+00  0.000E+00  1.01848E+03  2.857E+00  4.143E+01  4.222E-01  2.618E-01
   1   13    4     8     3    1.5564E+02 -1.8900E+00   1.5753E+02  0.000E+00  0.000E+00  0.000E+00  1.01224E+03  2.863E+00  4.151E+01  4.230E+00 -1.489E-01
   1   13    3     8     4    1.5753E+02 -3.3729E+00   1.6090E+02  0.000E+00  0.000E+00  0.000E+00  1.00601E+03  2.881E+00  4.177E+01  4.256E+00 -2.642E-01
   1   13    2     8     5    1.6090E+02 -2.5116E+00   1.6341E+02  0.000E+00  0.000E+00  0.000E+00  9.99775E+02  2.900E+00  4.206E+01  4.286E+00 -1.954E-01
   1   13    1     8     6    1.6341E+02 -1.9663E+00   1.6538E+02  0.000E+00  0.000E+00  0.000E+00  9.94790E+02  2.915E+00  4.227E+01  2.585E+00 -2.536E-01
   1    8    6     9     1    0.0000E+00  0.0000E+00   0.0000E+00  0.000E+00  0.000E+00  0.000E+00  1.07875E+03  0.000E+00  4.000E+00  0.000E+00  1.000E+00
   1    8    5     9     2    0.0000E+00  0.0000E+00   0.0000E+00  0.000E+00  0.000E+00  0.000E+00  1.07825E+03  0.000E+00  4.000E+00  0.000E+00  1.000E+00





UNSATURATED ZONE PACKAGE VOLUMETRIC BUDGET FOR  TIME STEP    30 STRESS PERIOD   38
  ------------------------------------------------------------------------------



     CUMULATIVE VOLUMES      L**3       RATES FOR THIS TIME STEP      L**3/T
     ------------------                 ------------------------

           IN:                                      IN:
           ---                                      ---
        INFILTRATION =  1620146196.7083          INFILTRATION =           4.4075

          OUT:                                     OUT:
          ----                                     ----
              UZF ET =  1493701898.9535                UZF ET =           0.7250
        UZF RECHARGE =      717884.2805          UZF RECHARGE =       0.0000E+00

            IN - OUT =   125726413.4742              IN - OUT =           3.6825

          STORAGE:                                 STORAGE:
          --------                                 --------
      STORAGE CHANGE =   125726390.0677        STORAGE CHANGE =           3.6825

 PERCENT DISCREPANCY IS DIFFERENCE BETWEEN IN-OUT MINUS CHANGE IN STORAGE
 DIVIDED BY THE AVERAGE OF IN AND OUT TIMES 100

 PERCENT DISCREPANCY =           0.00     PERCENT DISCREPANCY =           0.00






1
  VOLUMETRIC BUDGET FOR AGRICULTURAL FIELDS AT  END OF TIME STEP   30, STRESS PERIOD  38
  ------------------------------------------------------------------------------

     CUMULATIVE VOLUMES      L**3       RATES FOR THIS TIME STEP      L**3/T
     ------------------                 ------------------------

           IN:                                      IN:
           ---                                      ---
               AG WELLS  =   593838720.0000                 AG WELLS  =           0.0000
      DIVERSION SEGMENTS =   597329216.0000        DIVERSION SEGMENTS =           0.0000
           GW IRRIGATION =           0.0000             GW IRRIGATION =           0.0000
           SW IRRIGATION =           0.0000             SW IRRIGATION =           0.0000
        SYSTEM LOSSES GW =           0.0000          SYSTEM LOSSES GW =           0.0000
        SYSTEM LOSSES SW =           0.0000          SYSTEM LOSSES SW =           0.0000

                TOTAL IN =  1191168000.0000                  TOTAL IN =           0.0000

          OUT:                                     OUT:
          ----                                     ----
               AG WELLS  =           0.0000                 AG WELLS  =           0.0000
      DIVERSION SEGMENTS =           0.0000        DIVERSION SEGMENTS =           0.0000
           GW IRRIGATION =   593838720.0000             GW IRRIGATION =           0.0000
           SW IRRIGATION =   597340736.0000             SW IRRIGATION =           0.0000
        SYSTEM LOSSES GW =           0.0000          SYSTEM LOSSES GW =           0.0000
        SYSTEM LOSSES SW =           0.0000          SYSTEM LOSSES SW =           0.0000

               TOTAL OUT =  1191179520.0000                 TOTAL OUT =           0.0000

                IN - OUT =      -11520.0000                  IN - OUT =           0.0000

     PERCENT DISCREPANCY =          -0.00         PERCENT DISCREPANCY =           0.00



1
  VOLUMETRIC BUDGET FOR ENTIRE MODEL AT END OF TIME STEP   30, STRESS PERIOD  38
  ------------------------------------------------------------------------------

     CUMULATIVE VOLUMES      L**3       RATES FOR THIS TIME STEP      L**3/T
     ------------------                 ------------------------

           IN:                                      IN:
           ---                                      ---
             STORAGE     =   879326656.0000               STORAGE     =           2.7110
       CONSTANT HEAD     =           0.0000         CONSTANT HEAD     =           0.0000
     HEAD DEP BOUNDS     =    28081308.0000       HEAD DEP BOUNDS     =           0.2892
      STREAM LEAKAGE     =  1148480256.0000        STREAM LEAKAGE     =          11.4857
        UZF RECHARGE     =      717884.3750          UZF RECHARGE     =           0.0000
               GW ET     =           0.0000                 GW ET     =           0.0000
     SURFACE LEAKAGE     =           0.0000       SURFACE LEAKAGE     =           0.0000
           AG WELLS      =           0.0000             AG WELLS      =           0.0000

                TOTAL IN =  2056605952.0000                  TOTAL IN =          14.4858

          OUT:                                     OUT:
          ----                                     ----
             STORAGE     =   450126368.0000               STORAGE     =           4.4587
       CONSTANT HEAD     =           0.0000         CONSTANT HEAD     =           0.0000
     HEAD DEP BOUNDS     =    28031560.0000       HEAD DEP BOUNDS     =           0.2869
      STREAM LEAKAGE     =   984561344.0000        STREAM LEAKAGE     =           9.7407
        UZF RECHARGE     =           0.0000          UZF RECHARGE     =           0.0000
               GW ET     =           0.0000                 GW ET     =           0.0000
     SURFACE LEAKAGE     =           0.0000       SURFACE LEAKAGE     =           0.0000
           AG WELLS      =   593838720.0000             AG WELLS      =           0.0000

               TOTAL OUT =  2056557952.0000                 TOTAL OUT =          14.4863

                IN - OUT =       48000.0000                  IN - OUT =      -4.9686E-04

     PERCENT DISCREPANCY =           0.00         PERCENT DISCREPANCY =          -0.00






         TIME SUMMARY AT END OF TIME STEP   30 IN STRESS PERIOD   38
                    SECONDS     MINUTES      HOURS       DAYS        YEARS
                    -----------------------------------------------------------
   TIME STEP LENGTH  87667.      1461.1      24.352      1.0147     2.77799E-03
 STRESS PERIOD TIME 2.63000E+06  43833.      730.56      30.440     8.33397E-02
         TOTAL TIME 9.73959E+07 1.62326E+06  27054.      1127.3      3.0863    
1
1
                            STRESS PERIOD NO.   39, LENGTH =   2630000.    
                            -----------------------------------------------

                              NUMBER OF TIME STEPS =    30

                               MULTIPLIER FOR DELT =     1.000

                            INITIAL TIME STEP SIZE =   87666.66    

 REUSING NON-PARAMETER GHB CELLS FROM LAST STRESS PERIOD

      2 GHB CELLS

 REUSING STREAM SEGMENT DATA FROM LAST STRESS PERIOD



            AREAL INFILTRATION RATE
 READING ON UNIT   19 WITH FORMAT: (10F4.0)            

            1           2           3           4           5           6           7           8           9          10
 ........................................................................................................................
   1   1.2000E-09   0.000       0.000       0.000       0.000       0.000       0.000       0.000       0.000       0.000    
   2   2.1000E-09  2.0000E-09  8.0000E-10  8.5000E-09   0.000       0.000       0.000       0.000       0.000       0.000    
   3   5.0000E-10  1.1000E-09  8.8000E-09  5.5000E-09   0.000       0.000       0.000       0.000       0.000       0.000    
   4   8.5000E-09  1.1000E-09  1.1000E-09  1.1000E-09  2.0000E-09   0.000       0.000       0.000       0.000       0.000    
   5   8.5000E-09  1.1000E-09  1.1000E-09  1.1000E-09  1.1000E-09   0.000       0.000       0.000       0.000       0.000    
   6   8.5000E-09  5.2000E-09  2.1000E-09  1.1000E-09  1.5000E-09   0.000       0.000       0.000       0.000       0.000    
   7   8.5000E-09  5.2000E-09  2.1000E-09  1.2000E-09  2.0000E-09   0.000       0.000       0.000       0.000       0.000    
   8   5.0000E-10  5.2000E-09  2.1000E-09  1.2000E-09  5.0000E-09   0.000       0.000       0.000       0.000       0.000    
   9   5.0000E-10  5.2000E-09  2.1000E-09  1.2000E-09  5.0000E-09   0.000       0.000       0.000       0.000       0.000    
  10   5.0000E-10  5.2000E-09  2.1000E-09  1.2000E-09  5.8000E-09   0.000       0.000       0.000       0.000       0.000    
  11   1.0000E-10  1.1000E-09  1.1000E-09  1.2000E-09  5.0000E-09   0.000       0.000       0.000       0.000       0.000    
  12   1.1000E-09  1.1000E-09  1.1000E-09  1.1000E-09  2.0000E-09   0.000       0.000       0.000       0.000       0.000    
  13   1.1000E-09  2.2000E-09  2.2000E-09  2.1000E-09  1.0000E-09   0.000       0.000       0.000       0.000       0.000    
  14   2.0000E-10  5.5000E-09  5.5000E-09  5.2000E-09  1.0000E-09   0.000       0.000       0.000       0.000       0.000    
  15    0.000      8.8000E-09  8.8000E-09   0.000       0.000       0.000       0.000       0.000       0.000       0.000    

                  ET RATE =  5.000000E-10

 USING ET EXTINCTION DEPTH FROM PREVIOUS STRESS PERIOD. CURRENT PERIOD IS:      39

 USING EXTINCTION WATER CONTENT FROM PREVIOUS STRESS PERIOD. CURRENT PERIOD IS:      39

 USING AIR ENTRY PRESSURE FROM PREVIOUS STRESS PERIOD. CURRENT PERIOD IS:      39

 USING ROOT PRESSURE HEAD FROM PREVIOUS STRESS PERIOD. CURRENT PERIOD IS:      39

 USING ROOT ACTIVITY FROM PREVIOUS STRESS PERIOD. CURRENT PERIOD IS:      39

 PROCESSING AG STRESS PERIOD DATA

 READING AG STRESS PERIOD DATA

 READING IRRIGATION SEGMENT

 READING IRRIGATION WELL

 READING SUPPLEMENTAL WELL

 END PROCESSING AG STRESS PERIOD DATA OPTIONS
 
 SOLVING FOR HEAD 
                                                   Max.-Head-Change                         Max.-Flux-Residual
  Residual-Control   Outer-Iter.   Inner-Iter.     Column Row Layer    Maximum-Head-Change  Column Row Layer    Maximum-Flux-Residual          L2-NORM 
          0                 1           2             4    7     1       0.8699178189E-02       4    7    1         0.4560280966E+00      0.1148058902E+01
          0                 2           2             4    7     1      -0.8461943410E-03       4    7    1        -0.4560291200E-01      0.1148049152E+00
          0                 3           1             4    7     1       0.5762268479E-04       4    7    1         0.3192204248E-02      0.8036225675E-02

    ------------------------------------------------
       NWT REQUIRED            3 OUTER ITERATIONS 
       AND A TOTAL OF          5 INNER ITERATIONS.
    ------------------------------------------------

 NO OUTPUT CONTROL FOR STRESS PERIOD   39   TIME STEP    1
 
 SOLVING FOR HEAD 
                                                   Max.-Head-Change                         Max.-Flux-Residual
  Residual-Control   Outer-Iter.   Inner-Iter.     Column Row Layer    Maximum-Head-Change  Column Row Layer    Maximum-Flux-Residual          L2-NORM 
          0                 1           2             4    7     1       0.8622738489E-02       4    7    1         0.4519981936E+00      0.1140562743E+01
          0                 2           2             4    7     1      -0.8387588093E-03       4    7    1        -0.4519991946E-01      0.1140553263E+00
          0                 3           1             4    7     1       0.5711635274E-04       4    7    1         0.3163994774E-02      0.7983751565E-02

    ------------------------------------------------
       NWT REQUIRED            3 OUTER ITERATIONS 
       AND A TOTAL OF          5 INNER ITERATIONS.
    ------------------------------------------------

 NO OUTPUT CONTROL FOR STRESS PERIOD   39   TIME STEP    2
 
 SOLVING FOR HEAD 
                                                   Max.-Head-Change                         Max.-Flux-Residual
  Residual-Control   Outer-Iter.   Inner-Iter.     Column Row Layer    Maximum-Head-Change  Column Row Layer    Maximum-Flux-Residual          L2-NORM 
          0                 1           2             4    7     1       0.8547287865E-02       4    7    1         0.4480202191E+00      0.1131993737E+01
          0                 2           2             4    7     1      -0.8314194889E-03       4    7    1        -0.4480211983E-01      0.1131994170E+00
          0                 3           1             4    7     1       0.5661657287E-04       4    7    1         0.3136148819E-02      0.7923955706E-02

    ------------------------------------------------
       NWT REQUIRED            3 OUTER ITERATIONS 
       AND A TOTAL OF          5 INNER ITERATIONS.
    ------------------------------------------------

 NO OUTPUT CONTROL FOR STRESS PERIOD   39   TIME STEP    3
 
 SOLVING FOR HEAD 
                                                   Max.-Head-Change                         Max.-Flux-Residual
  Residual-Control   Outer-Iter.   Inner-Iter.     Column Row Layer    Maximum-Head-Change  Column Row Layer    Maximum-Flux-Residual          L2-NORM 
          0                 1           2             4    7     1       0.8472949997E-02       4    7    1         0.4441008609E+00      0.1124250028E+01
          0                 2           2             4    7     1      -0.8241884097E-03       4    7    1        -0.4441018188E-01      0.1124249300E+00
          0                 3           1             4    7     1       0.5612416324E-04       4    7    1         0.3108713162E-02      0.7869733802E-02

    ------------------------------------------------
       NWT REQUIRED            3 OUTER ITERATIONS 
       AND A TOTAL OF          5 INNER ITERATIONS.
    ------------------------------------------------

 NO OUTPUT CONTROL FOR STRESS PERIOD   39   TIME STEP    4
 
 SOLVING FOR HEAD 
                                                   Max.-Head-Change                         Max.-Flux-Residual
  Residual-Control   Outer-Iter.   Inner-Iter.     Column Row Layer    Maximum-Head-Change  Column Row Layer    Maximum-Flux-Residual          L2-NORM 
          0                 1           2             4    7     1       0.8399829867E-02       4    7    1         0.4402465320E+00      0.1117050753E+01
          0                 2           2             4    7     1      -0.8170757843E-03       4    7    1        -0.4402474691E-01      0.1117053796E+00
          0                 3           1             4    7     1       0.5563982026E-04       4    7    1         0.3081732726E-02      0.7819365615E-02

    ------------------------------------------------
       NWT REQUIRED            3 OUTER ITERATIONS 
       AND A TOTAL OF          5 INNER ITERATIONS.
    ------------------------------------------------

 NO OUTPUT CONTROL FOR STRESS PERIOD   39   TIME STEP    5
 
 SOLVING FOR HEAD 
                                                   Max.-Head-Change                         Max.-Flux-Residual
  Residual-Control   Outer-Iter.   Inner-Iter.     Column Row Layer    Maximum-Head-Change  Column Row Layer    Maximum-Flux-Residual          L2-NORM 
          0                 1           2             4    7     1       0.8327629696E-02       4    7    1         0.4364406721E+00      0.1109946458E+01
          0                 2           2             4    7     1      -0.8100526468E-03       4    7    1        -0.4364415892E-01      0.1109946703E+00
          0                 3           1             4    7     1       0.5516157091E-04       4    7    1         0.3055091576E-02      0.7769633340E-02

    ------------------------------------------------
       NWT REQUIRED            3 OUTER ITERATIONS 
       AND A TOTAL OF          5 INNER ITERATIONS.
    ------------------------------------------------

 NO OUTPUT CONTROL FOR STRESS PERIOD   39   TIME STEP    6
 
 SOLVING FOR HEAD 
                                                   Max.-Head-Change                         Max.-Flux-Residual
  Residual-Control   Outer-Iter.   Inner-Iter.     Column Row Layer    Maximum-Head-Change  Column Row Layer    Maximum-Flux-Residual          L2-NORM 
          0                 1           2             4    7     1       0.8256466109E-02       4    7    1         0.4326898452E+00      0.1102927557E+01
          0                 2           2             4    7     1      -0.8031303413E-03       4    7    1        -0.4326907426E-01      0.1102927810E+00
          0                 3           1             4    7     1       0.5469018781E-04       4    7    1         0.3028835662E-02      0.7808035030E-02

    ------------------------------------------------
       NWT REQUIRED            3 OUTER ITERATIONS 
       AND A TOTAL OF          5 INNER ITERATIONS.
    ------------------------------------------------

 NO OUTPUT CONTROL FOR STRESS PERIOD   39   TIME STEP    7
 
 SOLVING FOR HEAD 
                                                   Max.-Head-Change                         Max.-Flux-Residual
  Residual-Control   Outer-Iter.   Inner-Iter.     Column Row Layer    Maximum-Head-Change  Column Row Layer    Maximum-Flux-Residual          L2-NORM 
          0                 1           2             4    7     1       0.8186317240E-02       4    7    1         0.4289927636E+00      0.1096003361E+01
          0                 2           2             4    7     1      -0.7963067411E-03       4    7    1        -0.4289936420E-01      0.1096003767E+00
          0                 3           1             4    7     1       0.5422552611E-04       4    7    1         0.3002955965E-02      0.7671948154E-02

    ------------------------------------------------
       NWT REQUIRED            3 OUTER ITERATIONS 
       AND A TOTAL OF          5 INNER ITERATIONS.
    ------------------------------------------------

 NO OUTPUT CONTROL FOR STRESS PERIOD   39   TIME STEP    8
 
 SOLVING FOR HEAD 
                                                   Max.-Head-Change                         Max.-Flux-Residual
  Residual-Control   Outer-Iter.   Inner-Iter.     Column Row Layer    Maximum-Head-Change  Column Row Layer    Maximum-Flux-Residual          L2-NORM 
          0                 1           2             4    7     1       0.8117163300E-02       4    7    1         0.4253482936E+00      0.1089174945E+01
          0                 2           2             4    7     1      -0.7895884426E-03       4    7    1        -0.4253491535E-01      0.1089267121E+00
          0                 3           1             4    7     1       0.5376803526E-04       4    7    1         0.2977444557E-02      0.7624868300E-02

    ------------------------------------------------
       NWT REQUIRED            3 OUTER ITERATIONS 
       AND A TOTAL OF          5 INNER ITERATIONS.
    ------------------------------------------------

 NO OUTPUT CONTROL FOR STRESS PERIOD   39   TIME STEP    9
 
 SOLVING FOR HEAD 
                                                   Max.-Head-Change                         Max.-Flux-Residual
  Residual-Control   Outer-Iter.   Inner-Iter.     Column Row Layer    Maximum-Head-Change  Column Row Layer    Maximum-Flux-Residual          L2-NORM 
          0                 1           2             4    7     1       0.8048942087E-02       4    7    1         0.4217549564E+00      0.1082418056E+01
          0                 2           2             4    7     1      -0.7829438311E-03       4    7    1        -0.4217557983E-01      0.1082418459E+00
          0                 3           1             4    7     1       0.5331556211E-04       4    7    1         0.2952291070E-02      0.7576934019E-02

    ------------------------------------------------
       NWT REQUIRED            3 OUTER ITERATIONS 
       AND A TOTAL OF          5 INNER ITERATIONS.
    ------------------------------------------------

 NO OUTPUT CONTROL FOR STRESS PERIOD   39   TIME STEP   10
 
 SOLVING FOR HEAD 
                                                   Max.-Head-Change                         Max.-Flux-Residual
  Residual-Control   Outer-Iter.   Inner-Iter.     Column Row Layer    Maximum-Head-Change  Column Row Layer    Maximum-Flux-Residual          L2-NORM 
          0                 1           2             4    7     1       0.7981666617E-02       4    7    1         0.4182108850E+00      0.1075740557E+01
          0                 2           2             4    7     1      -0.7763997369E-03       4    7    1        -0.4182117097E-01      0.1075740937E+00
          0                 3           1             4    7     1       0.5286993403E-04       4    7    1         0.2927482460E-02      0.7530182813E-02

    ------------------------------------------------
       NWT REQUIRED            3 OUTER ITERATIONS 
       AND A TOTAL OF          5 INNER ITERATIONS.
    ------------------------------------------------

 NO OUTPUT CONTROL FOR STRESS PERIOD   39   TIME STEP   11
 
 SOLVING FOR HEAD 
                                                   Max.-Head-Change                         Max.-Flux-Residual
  Residual-Control   Outer-Iter.   Inner-Iter.     Column Row Layer    Maximum-Head-Change  Column Row Layer    Maximum-Flux-Residual          L2-NORM 
          0                 1           2             4    7     1       0.7915307221E-02       4    7    1         0.4147153964E+00      0.1069145178E+01
          0                 2           2             4    7     1      -0.7699447516E-03       4    7    1        -0.4147162039E-01      0.1069145435E+00
          0                 3           1             4    7     1       0.5243037319E-04       4    7    1         0.2903013909E-02      0.7484014571E-02

    ------------------------------------------------
       NWT REQUIRED            3 OUTER ITERATIONS 
       AND A TOTAL OF          5 INNER ITERATIONS.
    ------------------------------------------------

 NO OUTPUT CONTROL FOR STRESS PERIOD   39   TIME STEP   12
 
 SOLVING FOR HEAD 
                                                   Max.-Head-Change                         Max.-Flux-Residual
  Residual-Control   Outer-Iter.   Inner-Iter.     Column Row Layer    Maximum-Head-Change  Column Row Layer    Maximum-Flux-Residual          L2-NORM 
          0                 1           2             4    7     1       0.7849849247E-02       4    7    1         0.4112674048E+00      0.1062637686E+01
          0                 2           2             4    7     1      -0.7635774513E-03       4    7    1        -0.4112681958E-01      0.1062637464E+00
          0                 3           1             4    7     1       0.5199678385E-04       4    7    1         0.2878877863E-02      0.7438426141E-02

    ------------------------------------------------
       NWT REQUIRED            3 OUTER ITERATIONS 
       AND A TOTAL OF          5 INNER ITERATIONS.
    ------------------------------------------------

 NO OUTPUT CONTROL FOR STRESS PERIOD   39   TIME STEP   13
 
 SOLVING FOR HEAD 
                                                   Max.-Head-Change                         Max.-Flux-Residual
  Residual-Control   Outer-Iter.   Inner-Iter.     Column Row Layer    Maximum-Head-Change  Column Row Layer    Maximum-Flux-Residual          L2-NORM 
          0                 1           2             4    7     1       0.7785271730E-02       4    7    1         0.4078661508E+00      0.1056206626E+01
          0                 2           2             4    7     1      -0.7572957957E-03       4    7    1        -0.4078669254E-01      0.1056206737E+00
          0                 3           1             4    7     1       0.5156902697E-04       4    7    1         0.2855068987E-02      0.7393442914E-02

    ------------------------------------------------
       NWT REQUIRED            3 OUTER ITERATIONS 
       AND A TOTAL OF          5 INNER ITERATIONS.
    ------------------------------------------------

 NO OUTPUT CONTROL FOR STRESS PERIOD   39   TIME STEP   14
 
 SOLVING FOR HEAD 
                                                   Max.-Head-Change                         Max.-Flux-Residual
  Residual-Control   Outer-Iter.   Inner-Iter.     Column Row Layer    Maximum-Head-Change  Column Row Layer    Maximum-Flux-Residual          L2-NORM 
          0                 1           2             4    7     1       0.7721561538E-02       4    7    1         0.4045105470E+00      0.1049856192E+01
          0                 2           2             4    7     1      -0.7510985079E-03       4    7    1        -0.4045113060E-01      0.1049856351E+00
          0                 3           1             4    7     1       0.5114701462E-04       4    7    1         0.2831579637E-02      0.7348996594E-02

    ------------------------------------------------
       NWT REQUIRED            3 OUTER ITERATIONS 
       AND A TOTAL OF          5 INNER ITERATIONS.
    ------------------------------------------------

 NO OUTPUT CONTROL FOR STRESS PERIOD   39   TIME STEP   15
 
 SOLVING FOR HEAD 
                                                   Max.-Head-Change                         Max.-Flux-Residual
  Residual-Control   Outer-Iter.   Inner-Iter.     Column Row Layer    Maximum-Head-Change  Column Row Layer    Maximum-Flux-Residual          L2-NORM 
          0                 1           2             4    7     1       0.7658698917E-02       4    7    1         0.4011999128E+00      0.1043580657E+01
          0                 2           2             4    7     1      -0.7449836662E-03       4    7    1        -0.4012006564E-01      0.1043580512E+00
          0                 3           1             4    7     1       0.5073061699E-04       4    7    1         0.2808405106E-02      0.7305064369E-02

    ------------------------------------------------
       NWT REQUIRED            3 OUTER ITERATIONS 
       AND A TOTAL OF          5 INNER ITERATIONS.
    ------------------------------------------------

 NO OUTPUT CONTROL FOR STRESS PERIOD   39   TIME STEP   16
 
 SOLVING FOR HEAD 
                                                   Max.-Head-Change                         Max.-Flux-Residual
  Residual-Control   Outer-Iter.   Inner-Iter.     Column Row Layer    Maximum-Head-Change  Column Row Layer    Maximum-Flux-Residual          L2-NORM 
          0                 1           2             4    7     1       0.7596668077E-02       4    7    1         0.3979332240E+00      0.1037383834E+01
          0                 2           2             4    7     1      -0.7389497351E-03       4    7    1        -0.3979339527E-01      0.1037383577E+00
          0                 3           1             4    7     1       0.5031972900E-04       4    7    1         0.2785538193E-02      0.7261681339E-02

    ------------------------------------------------
       NWT REQUIRED            3 OUTER ITERATIONS 
       AND A TOTAL OF          5 INNER ITERATIONS.
    ------------------------------------------------

 NO OUTPUT CONTROL FOR STRESS PERIOD   39   TIME STEP   17
 
 SOLVING FOR HEAD 
                                                   Max.-Head-Change                         Max.-Flux-Residual
  Residual-Control   Outer-Iter.   Inner-Iter.     Column Row Layer    Maximum-Head-Change  Column Row Layer    Maximum-Flux-Residual          L2-NORM 
          0                 1           2             4    7     1       0.7535456208E-02       4    7    1         0.3947096618E+00      0.1031269080E+01
          0                 2           2             4    7     1      -0.7329954671E-03       4    7    1        -0.3947103756E-01      0.1031268643E+00
          0                 3           1             4    7     1       0.4991426544E-04       4    7    1         0.2762973149E-02      0.7218881412E-02

    ------------------------------------------------
       NWT REQUIRED            3 OUTER ITERATIONS 
       AND A TOTAL OF          5 INNER ITERATIONS.
    ------------------------------------------------

 NO OUTPUT CONTROL FOR STRESS PERIOD   39   TIME STEP   18
 
 SOLVING FOR HEAD 
                                                   Max.-Head-Change                         Max.-Flux-Residual
  Residual-Control   Outer-Iter.   Inner-Iter.     Column Row Layer    Maximum-Head-Change  Column Row Layer    Maximum-Flux-Residual          L2-NORM 
          0                 1           2             4    7     1       0.7475044304E-02       4    7    1         0.3915285621E+00      0.1025219134E+01
          0                 2           2             4    7     1      -0.7271190152E-03       4    7    1        -0.3915292617E-01      0.1025218435E+00
          0                 3           1             4    7     1       0.4951410123E-04       4    7    1         0.2740705363E-02      0.7176516406E-02

    ------------------------------------------------
       NWT REQUIRED            3 OUTER ITERATIONS 
       AND A TOTAL OF          5 INNER ITERATIONS.
    ------------------------------------------------

 NO OUTPUT CONTROL FOR STRESS PERIOD   39   TIME STEP   19
 
 SOLVING FOR HEAD 
                                                   Max.-Head-Change                         Max.-Flux-Residual
  Residual-Control   Outer-Iter.   Inner-Iter.     Column Row Layer    Maximum-Head-Change  Column Row Layer    Maximum-Flux-Residual          L2-NORM 
          0                 1           2             4    7     1       0.7415418154E-02       4    7    1         0.3883889394E+00      0.1019239775E+01
          0                 2           2             4    7     1      -0.7213189961E-03       4    7    1        -0.3883896252E-01      0.1019239061E+00
          0                 3           1             4    7     1       0.4911914135E-04       4    7    1         0.2718727899E-02      0.7134662515E-02

    ------------------------------------------------
       NWT REQUIRED            3 OUTER ITERATIONS 
       AND A TOTAL OF          5 INNER ITERATIONS.
    ------------------------------------------------

 NO OUTPUT CONTROL FOR STRESS PERIOD   39   TIME STEP   20
 
 SOLVING FOR HEAD 
                                                   Max.-Head-Change                         Max.-Flux-Residual
  Residual-Control   Outer-Iter.   Inner-Iter.     Column Row Layer    Maximum-Head-Change  Column Row Layer    Maximum-Flux-Residual          L2-NORM 
          0                 1           2             4    7     1       0.7356697873E-02       4    7    1         0.3852973932E+00      0.1013346491E+01
          0                 2           2             4    7     1      -0.7156070938E-03       4    7    1        -0.3852980654E-01      0.1013345636E+00
          0                 3           1             4    7     1       0.4873018220E-04       4    7    1         0.2697086981E-02      0.7093406348E-02

    ------------------------------------------------
       NWT REQUIRED            3 OUTER ITERATIONS 
       AND A TOTAL OF          5 INNER ITERATIONS.
    ------------------------------------------------

 NO OUTPUT CONTROL FOR STRESS PERIOD   39   TIME STEP   21
 
 SOLVING FOR HEAD 
                                                   Max.-Head-Change                         Max.-Flux-Residual
  Residual-Control   Outer-Iter.   Inner-Iter.     Column Row Layer    Maximum-Head-Change  Column Row Layer    Maximum-Flux-Residual          L2-NORM 
          0                 1           2             4    7     1       0.7298728598E-02       4    7    1         0.3822454789E+00      0.1007514014E+01
          0                 2           2             4    7     1      -0.7099682446E-03       4    7    1        -0.3822461378E-01      0.1007513111E+00
          0                 3           1             4    7     1       0.4834619780E-04       4    7    1         0.2675723514E-02      0.7052582503E-02

    ------------------------------------------------
       NWT REQUIRED            3 OUTER ITERATIONS 
       AND A TOTAL OF          5 INNER ITERATIONS.
    ------------------------------------------------

 NO OUTPUT CONTROL FOR STRESS PERIOD   39   TIME STEP   22
 
 SOLVING FOR HEAD 
                                                   Max.-Head-Change                         Max.-Flux-Residual
  Residual-Control   Outer-Iter.   Inner-Iter.     Column Row Layer    Maximum-Head-Change  Column Row Layer    Maximum-Flux-Residual          L2-NORM 
          0                 1           2             4    7     1       0.7241362005E-02       4    7    1         0.3792251664E+00      0.1001746232E+01
          0                 2           2             4    7     1      -0.7043880201E-03       4    7    1        -0.3792258124E-01      0.1001747174E+00
          0                 3           1             4    7     1       0.4796620490E-04       4    7    1         0.2654581218E-02      0.7012228324E-02

    ------------------------------------------------
       NWT REQUIRED            3 OUTER ITERATIONS 
       AND A TOTAL OF          5 INNER ITERATIONS.
    ------------------------------------------------

 NO OUTPUT CONTROL FOR STRESS PERIOD   39   TIME STEP   23
 
 SOLVING FOR HEAD 
                                                   Max.-Head-Change                         Max.-Flux-Residual
  Residual-Control   Outer-Iter.   Inner-Iter.     Column Row Layer    Maximum-Head-Change  Column Row Layer    Maximum-Flux-Residual          L2-NORM 
          0                 1           2             4    7     1       0.7184859078E-02       4    7    1         0.3762507753E+00      0.9968948469E+00
          0                 2           2             4    7     1      -0.6988918072E-03       4    7    1        -0.3762514087E-01      0.9974305522E-01
          0                 3           1             4    7     1       0.4759193358E-04       4    7    1         0.2633760400E-02      0.7006247884E-02

    ------------------------------------------------
       NWT REQUIRED            3 OUTER ITERATIONS 
       AND A TOTAL OF          5 INNER ITERATIONS.
    ------------------------------------------------

 NO OUTPUT CONTROL FOR STRESS PERIOD   39   TIME STEP   24
 
 SOLVING FOR HEAD 
                                                   Max.-Head-Change                         Max.-Flux-Residual
  Residual-Control   Outer-Iter.   Inner-Iter.     Column Row Layer    Maximum-Head-Change  Column Row Layer    Maximum-Flux-Residual          L2-NORM 
          0                 1           2             4    7     1       0.7129065185E-02       4    7    1         0.3733138275E+00      0.9910569788E+00
          0                 2           2             4    7     1      -0.6934645648E-03       4    7    1        -0.3733144486E-01      0.9914634906E-01
          0                 3           1             4    7     1       0.4722235891E-04       4    7    1         0.2613201685E-02      0.6958846066E-02

    ------------------------------------------------
       NWT REQUIRED            3 OUTER ITERATIONS 
       AND A TOTAL OF          5 INNER ITERATIONS.
    ------------------------------------------------

 NO OUTPUT CONTROL FOR STRESS PERIOD   39   TIME STEP   25
 
 SOLVING FOR HEAD 
                                                   Max.-Head-Change                         Max.-Flux-Residual
  Residual-Control   Outer-Iter.   Inner-Iter.     Column Row Layer    Maximum-Head-Change  Column Row Layer    Maximum-Flux-Residual          L2-NORM 
          0                 1           2             4    7     1       0.7073966354E-02       4    7    1         0.3704136420E+00      0.9853286969E+00
          0                 2           2             4    7     1      -0.6881049350E-03       4    7    1        -0.3704142511E-01      0.9856859585E-01
          0                 3           1             4    7     1       0.4685738790E-04       4    7    1         0.2592900309E-02      0.6913835653E-02

    ------------------------------------------------
       NWT REQUIRED            3 OUTER ITERATIONS 
       AND A TOTAL OF          5 INNER ITERATIONS.
    ------------------------------------------------

 NO OUTPUT CONTROL FOR STRESS PERIOD   39   TIME STEP   26
 
 SOLVING FOR HEAD 
                                                   Max.-Head-Change                         Max.-Flux-Residual
  Residual-Control   Outer-Iter.   Inner-Iter.     Column Row Layer    Maximum-Head-Change  Column Row Layer    Maximum-Flux-Residual          L2-NORM 
          0                 1           2             4    7     1       0.7019686658E-02       4    7    1         0.3675568314E+00      0.9797006468E+00
          0                 2           2             4    7     1      -0.6828249814E-03       4    7    1        -0.3675574290E-01      0.9799318895E-01
          0                 3           1             4    7     1       0.4649784251E-04       4    7    1         0.2572902530E-02      0.6870418481E-02

    ------------------------------------------------
       NWT REQUIRED            3 OUTER ITERATIONS 
       AND A TOTAL OF          5 INNER ITERATIONS.
    ------------------------------------------------

 NO OUTPUT CONTROL FOR STRESS PERIOD   39   TIME STEP   27
 
 SOLVING FOR HEAD 
                                                   Max.-Head-Change                         Max.-Flux-Residual
  Residual-Control   Outer-Iter.   Inner-Iter.     Column Row Layer    Maximum-Head-Change  Column Row Layer    Maximum-Flux-Residual          L2-NORM 
          0                 1           2             4    7     1       0.6965938187E-02       4    7    1         0.3647278179E+00      0.9741536674E+00
          0                 2           2             4    7     1      -0.6775967036E-03       4    7    1        -0.3647284039E-01      0.9743269411E-01
          0                 3           1             4    7     1       0.4614181644E-04       4    7    1         0.2553099369E-02      0.6828552855E-02

    ------------------------------------------------
       NWT REQUIRED            3 OUTER ITERATIONS 
       AND A TOTAL OF          5 INNER ITERATIONS.
    ------------------------------------------------

 NO OUTPUT CONTROL FOR STRESS PERIOD   39   TIME STEP   28
 
 SOLVING FOR HEAD 
                                                   Max.-Head-Change                         Max.-Flux-Residual
  Residual-Control   Outer-Iter.   Inner-Iter.     Column Row Layer    Maximum-Head-Change  Column Row Layer    Maximum-Flux-Residual          L2-NORM 
          0                 1           2             4    7     1       0.6912984373E-02       4    7    1         0.3619410218E+00      0.9686916979E+00
          0                 2           2             4    7     1      -0.6724457252E-03       4    7    1        -0.3619415969E-01      0.9688209771E-01
          0                 3           1             4    7     1       0.4579105387E-04       4    7    1         0.2533591709E-02      0.6788044043E-02

    ------------------------------------------------
       NWT REQUIRED            3 OUTER ITERATIONS 
       AND A TOTAL OF          5 INNER ITERATIONS.
    ------------------------------------------------

 NO OUTPUT CONTROL FOR STRESS PERIOD   39   TIME STEP   29
 
 SOLVING FOR HEAD 
                                                   Max.-Head-Change                         Max.-Flux-Residual
  Residual-Control   Outer-Iter.   Inner-Iter.     Column Row Layer    Maximum-Head-Change  Column Row Layer    Maximum-Flux-Residual          L2-NORM 
          0                 1           2             4    7     1       0.6860763720E-02       4    7    1         0.3591880904E+00      0.1024646483E+01
          0                 2           2             4    7     1      -0.6673660626E-03       4    7    1        -0.3591886540E-01      0.1035493228E+00
          0                 3           1             3   13     1       0.5343966781E-04       3   13    1         0.3053453840E-02      0.7678331991E-02

    ------------------------------------------------
       NWT REQUIRED            3 OUTER ITERATIONS 
       AND A TOTAL OF          5 INNER ITERATIONS.
    ------------------------------------------------

 NO OUTPUT CONTROL FOR STRESS PERIOD   39   TIME STEP   30



 STREAM LISTING     PERIOD     39   STEP       30

 LAYER ROW COL. STREAM  RCH.  FLOW INTO     FLOW TO   FLOW OUT OF   OVRLND.     DIRECT     STREAM       STREAM     STREAM     STREAM   STREAMBED  STREAMBED
                SEG.NO.  NO.  STRM. RCH.    AQUIFER    STRM. RCH.    RUNOFF     PRECIP       ET          HEAD       DEPTH      WIDTH   CONDCTNC.   GRADIENT

   1    1    1     1     1    1.6375E+01  1.9673E-01   1.6178E+01  0.000E+00  0.000E+00  0.000E+00  1.09408E+03  1.036E+00  1.083E+01  4.874E-02  1.345E+00
   1    2    2     1     2    1.6178E+01  3.0333E-01   1.5875E+01  0.000E+00  0.000E+00  0.000E+00  1.08909E+03  1.032E+00  1.075E+01  7.524E-02  1.344E+00
   1    3    3     1     3    1.5875E+01  2.5739E-01   1.5618E+01  0.000E+00  0.000E+00  0.000E+00  1.08345E+03  1.026E+00  1.065E+01  6.392E-02  1.342E+00
   1    3    4     1     4    1.5618E+01  2.3595E-01   1.5382E+01  0.000E+00  0.000E+00  0.000E+00  1.07843E+03  1.022E+00  1.057E+01  5.867E-02  1.341E+00
   1    4    5     2     1    1.3382E+01  2.9830E-01   1.3084E+01  0.000E+00  0.000E+00  0.000E+00  1.07276E+03  8.244E-01  1.200E+01  7.800E-02  1.275E+00
   1    5    6     2     2    1.3084E+01  2.2887E-01   1.2855E+01  0.000E+00  0.000E+00  0.000E+00  1.06732E+03  8.145E-01  1.200E+01  6.000E-02  1.271E+00
   1    6    6     2     3    1.2855E+01  2.2835E-01   1.2626E+01  0.000E+00  0.000E+00  0.000E+00  1.06260E+03  8.059E-01  1.200E+01  6.000E-02  1.269E+00
   1    7    6     2     4    1.2626E+01  2.2783E-01   1.2398E+01  0.000E+00  0.000E+00  0.000E+00  1.05787E+03  7.972E-01  1.200E+01  6.000E-02  1.266E+00
   1    8    6     2     5    1.2398E+01  2.2731E-01   1.2171E+01  0.000E+00  0.000E+00  0.000E+00  1.05315E+03  7.884E-01  1.200E+01  6.000E-02  1.263E+00
   1    3    5     3     1    2.0000E+00  2.8252E-01   1.7175E+00  0.000E+00  0.000E+00  0.000E+00  1.07555E+03  1.909E+00  9.636E+00  7.227E-02  1.955E+00
   1    3    6     3     2    1.7175E+00  2.4905E-01   1.4684E+00  0.000E+00  0.000E+00  0.000E+00  1.07264E+03  1.727E+00  8.909E+00  6.682E-02  1.864E+00
   1    3    7     3     3    1.4684E+00  1.9718E-01   1.2712E+00  0.000E+00  0.000E+00  0.000E+00  1.06987E+03  1.555E+00  8.218E+00  5.547E-02  1.777E+00
   1    4    8     3     4    1.2712E+00  2.2567E-01   1.0456E+00  0.000E+00  0.000E+00  0.000E+00  1.06682E+03  1.364E+00  7.455E+00  6.709E-02  1.682E+00
   1    5    8     3     5    1.0456E+00  1.5790E-01   8.8768E-01  0.000E+00  0.000E+00  0.000E+00  1.06362E+03  1.164E+00  6.655E+00  4.991E-02  1.582E+00
   1    6    8     3     6    8.8768E-01  5.5980E-02   8.3170E-01  0.000E+00  0.000E+00  0.000E+00  1.06158E+03  1.036E+00  6.145E+00  1.844E-02  1.518E+00
   1    5   10     4     1    1.0000E+01  9.0919E-02   9.9091E+00  0.000E+00  0.000E+00  0.000E+00  1.07836E+03  6.368E-01  1.000E+01  2.500E-02  1.212E+00
   1    5    9     4     2    9.9091E+00  1.8158E-01   9.7275E+00  0.000E+00  0.000E+00  0.000E+00  1.07154E+03  6.315E-01  1.000E+01  5.000E-02  1.211E+00
   1    6    8     4     3    9.7275E+00  1.2689E-01   9.6006E+00  0.000E+00  0.000E+00  0.000E+00  1.06381E+03  6.256E-01  1.000E+01  3.500E-02  1.209E+00
   1    6    8     5     1    1.0432E+01  2.2686E-01   1.0205E+01  0.000E+00  0.000E+00  0.000E+00  1.05868E+03  6.790E-01  1.542E+01  6.166E-02  1.226E+00
   1    7    7     5     2    1.0205E+01  2.7894E-01   9.9265E+00  0.000E+00  0.000E+00  0.000E+00  1.05417E+03  6.732E-01  1.519E+01  7.594E-02  1.224E+00
   1    8    7     5     3    9.9265E+00  1.9221E-01   9.7343E+00  0.000E+00  0.000E+00  0.000E+00  1.04992E+03  6.676E-01  1.497E+01  5.241E-02  1.223E+00
   1    8    6     5     4    9.7343E+00  1.3577E-01   9.5985E+00  0.000E+00  0.000E+00  0.000E+00  1.04691E+03  6.637E-01  1.482E+01  3.706E-02  1.221E+00
   1    9    6     6     1    2.1770E+01  2.4720E-01   2.1522E+01  0.000E+00  0.000E+00  0.000E+00  1.04385E+03  1.120E+00  1.200E+01  6.000E-02  1.373E+00
   1   10    7     6     2    2.1522E+01  2.4674E-01   2.1276E+01  0.000E+00  0.000E+00  0.000E+00  1.03929E+03  1.112E+00  1.200E+01  6.000E-02  1.371E+00
   1   11    7     6     3    2.1276E+01  2.4627E-01   2.1029E+01  0.000E+00  0.000E+00  0.000E+00  1.03474E+03  1.105E+00  1.200E+01  6.000E-02  1.368E+00
   1   12    7     6     4    2.1029E+01  2.4581E-01   2.0784E+01  0.000E+00  0.000E+00  0.000E+00  1.03019E+03  1.097E+00  1.200E+01  6.000E-02  1.366E+00
   1   13    7     6     5    2.0784E+01  9.0580E-03   2.0775E+01  0.000E+00  0.000E+00  0.000E+00  1.02700E+03  1.093E+00  1.200E+01  2.400E-02  1.258E-01
   1   14    9     7     1    1.5000E+02  1.3866E+00   1.4861E+02  0.000E+00  0.000E+00  0.000E+00  1.03987E+03  2.288E+00  5.529E+01  5.593E-01  8.264E-01
   1   13    8     7     2    1.4861E+02  1.9836E+00   1.4663E+02  0.000E+00  0.000E+00  0.000E+00  1.03478E+03  2.279E+00  5.525E+01  6.147E-01  1.076E+00
   1   13    7     7     3    1.4663E+02  1.7106E+00   1.4492E+02  0.000E+00  0.000E+00  0.000E+00  1.02969E+03  2.269E+00  5.521E+01  5.584E-01  1.021E+00
   1   13    6     8     1    1.6569E+02  1.1314E+00   1.6456E+02  0.000E+00  0.000E+00  0.000E+00  1.02480E+03  2.920E+00  4.234E+01  4.315E-01  8.740E-01
   1   13    5     8     2    1.6456E+02  3.6743E-01   1.6419E+02  0.000E+00  0.000E+00  0.000E+00  1.01854E+03  2.915E+00  4.227E+01  4.308E-01  2.843E-01
   1   13    4     8     3    1.6419E+02 -1.6908E+00   1.6589E+02  0.000E+00  0.000E+00  0.000E+00  1.01229E+03  2.920E+00  4.233E+01  4.314E+00 -1.306E-01
   1   13    3     8     4    1.6589E+02 -3.2297E+00   1.6912E+02  0.000E+00  0.000E+00  0.000E+00  1.00606E+03  2.936E+00  4.257E+01  4.338E+00 -2.482E-01
   1   13    2     8     5    1.6912E+02 -2.3426E+00   1.7146E+02  0.000E+00  0.000E+00  0.000E+00  9.99829E+02  2.954E+00  4.283E+01  4.365E+00 -1.789E-01
   1   13    1     8     6    1.7146E+02 -1.8687E+00   1.7333E+02  0.000E+00  0.000E+00  0.000E+00  9.94843E+02  2.968E+00  4.303E+01  2.631E+00 -2.367E-01
   1    8    6     9     1    0.0000E+00  0.0000E+00   0.0000E+00  0.000E+00  0.000E+00  0.000E+00  1.07875E+03  0.000E+00  4.000E+00  0.000E+00  1.000E+00
   1    8    5     9     2    0.0000E+00  0.0000E+00   0.0000E+00  0.000E+00  0.000E+00  0.000E+00  1.07825E+03  0.000E+00  4.000E+00  0.000E+00  1.000E+00





UNSATURATED ZONE PACKAGE VOLUMETRIC BUDGET FOR  TIME STEP    30 STRESS PERIOD   39
  ------------------------------------------------------------------------------



     CUMULATIVE VOLUMES      L**3       RATES FOR THIS TIME STEP      L**3/T
     ------------------                 ------------------------

           IN:                                      IN:
           ---                                      ---
        INFILTRATION =  1631737921.2664          INFILTRATION =           4.4075

          OUT:                                     OUT:
          ----                                     ----
              UZF ET =  1495608648.8176                UZF ET =           0.7250
        UZF RECHARGE =      752255.7397          UZF RECHARGE =           0.0903

            IN - OUT =   135377016.7090              IN - OUT =           3.5922

          STORAGE:                                 STORAGE:
          --------                                 --------
      STORAGE CHANGE =   135376993.2326        STORAGE CHANGE =           3.5922

 PERCENT DISCREPANCY IS DIFFERENCE BETWEEN IN-OUT MINUS CHANGE IN STORAGE
 DIVIDED BY THE AVERAGE OF IN AND OUT TIMES 100

 PERCENT DISCREPANCY =           0.00     PERCENT DISCREPANCY =           0.00






1
  VOLUMETRIC BUDGET FOR AGRICULTURAL FIELDS AT  END OF TIME STEP   30, STRESS PERIOD  39
  ------------------------------------------------------------------------------

     CUMULATIVE VOLUMES      L**3       RATES FOR THIS TIME STEP      L**3/T
     ------------------                 ------------------------

           IN:                                      IN:
           ---                                      ---
               AG WELLS  =   593838720.0000                 AG WELLS  =           0.0000
      DIVERSION SEGMENTS =   597329216.0000        DIVERSION SEGMENTS =           0.0000
           GW IRRIGATION =           0.0000             GW IRRIGATION =           0.0000
           SW IRRIGATION =           0.0000             SW IRRIGATION =           0.0000
        SYSTEM LOSSES GW =           0.0000          SYSTEM LOSSES GW =           0.0000
        SYSTEM LOSSES SW =           0.0000          SYSTEM LOSSES SW =           0.0000

                TOTAL IN =  1191168000.0000                  TOTAL IN =           0.0000

          OUT:                                     OUT:
          ----                                     ----
               AG WELLS  =           0.0000                 AG WELLS  =           0.0000
      DIVERSION SEGMENTS =           0.0000        DIVERSION SEGMENTS =           0.0000
           GW IRRIGATION =   593838720.0000             GW IRRIGATION =           0.0000
           SW IRRIGATION =   597340736.0000             SW IRRIGATION =           0.0000
        SYSTEM LOSSES GW =           0.0000          SYSTEM LOSSES GW =           0.0000
        SYSTEM LOSSES SW =           0.0000          SYSTEM LOSSES SW =           0.0000

               TOTAL OUT =  1191179520.0000                 TOTAL OUT =           0.0000

                IN - OUT =      -11520.0000                  IN - OUT =           0.0000

     PERCENT DISCREPANCY =          -0.00         PERCENT DISCREPANCY =           0.00



1
  VOLUMETRIC BUDGET FOR ENTIRE MODEL AT END OF TIME STEP   30, STRESS PERIOD  39
  ------------------------------------------------------------------------------

     CUMULATIVE VOLUMES      L**3       RATES FOR THIS TIME STEP      L**3/T
     ------------------                 ------------------------

           IN:                                      IN:
           ---                                      ---
             STORAGE     =   885549504.0000               STORAGE     =           1.7993
       CONSTANT HEAD     =           0.0000         CONSTANT HEAD     =           0.0000
     HEAD DEP BOUNDS     =    28841874.0000       HEAD DEP BOUNDS     =           0.2892
      STREAM LEAKAGE     =  1178923136.0000        STREAM LEAKAGE     =          12.1802
        UZF RECHARGE     =      752255.8125          UZF RECHARGE     =       9.0320E-02
               GW ET     =           0.0000                 GW ET     =           0.0000
     SURFACE LEAKAGE     =           0.0000       SURFACE LEAKAGE     =           0.0000
           AG WELLS      =           0.0000             AG WELLS      =           0.0000

                TOTAL IN =  2094066816.0000                  TOTAL IN =          14.3591

          OUT:                                     OUT:
          ----                                     ----
             STORAGE     =   461379168.0000               STORAGE     =           4.9407
       CONSTANT HEAD     =           0.0000         CONSTANT HEAD     =           0.0000
     HEAD DEP BOUNDS     =    28786228.0000       HEAD DEP BOUNDS     =           0.2870
      STREAM LEAKAGE     =  1010016256.0000        STREAM LEAKAGE     =           9.1318
        UZF RECHARGE     =           0.0000          UZF RECHARGE     =           0.0000
               GW ET     =           0.0000                 GW ET     =           0.0000
     SURFACE LEAKAGE     =           0.0000       SURFACE LEAKAGE     =           0.0000
           AG WELLS      =   593838720.0000             AG WELLS      =           0.0000

               TOTAL OUT =  2094020352.0000                 TOTAL OUT =          14.3595

                IN - OUT =       46464.0000                  IN - OUT =      -4.3583E-04

     PERCENT DISCREPANCY =           0.00         PERCENT DISCREPANCY =          -0.00






         TIME SUMMARY AT END OF TIME STEP   30 IN STRESS PERIOD   39
                    SECONDS     MINUTES      HOURS       DAYS        YEARS
                    -----------------------------------------------------------
   TIME STEP LENGTH  87667.      1461.1      24.352      1.0147     2.77799E-03
 STRESS PERIOD TIME 2.63000E+06  43833.      730.56      30.440     8.33397E-02
         TOTAL TIME 1.00026E+08 1.66710E+06  27785.      1157.7      3.1696    
1
1
                            STRESS PERIOD NO.   40, LENGTH =   2630000.    
                            -----------------------------------------------

                              NUMBER OF TIME STEPS =    30

                               MULTIPLIER FOR DELT =     1.000

                            INITIAL TIME STEP SIZE =   87666.66    

 REUSING NON-PARAMETER GHB CELLS FROM LAST STRESS PERIOD

      2 GHB CELLS

 REUSING STREAM SEGMENT DATA FROM LAST STRESS PERIOD



            AREAL INFILTRATION RATE
 READING ON UNIT   19 WITH FORMAT: (10F4.0)            

            1           2           3           4           5           6           7           8           9          10
 ........................................................................................................................
   1   1.2000E-09   0.000       0.000       0.000       0.000       0.000       0.000       0.000       0.000       0.000    
   2   2.1000E-09  2.0000E-09  8.0000E-10  8.5000E-09   0.000       0.000       0.000       0.000       0.000       0.000    
   3   5.0000E-10  1.1000E-09  8.8000E-09  5.5000E-09   0.000       0.000       0.000       0.000       0.000       0.000    
   4   8.5000E-09  1.1000E-09  1.1000E-09  1.1000E-09  2.0000E-09   0.000       0.000       0.000       0.000       0.000    
   5   8.5000E-09  1.1000E-09  1.1000E-09  1.1000E-09  1.1000E-09   0.000       0.000       0.000       0.000       0.000    
   6   8.5000E-09  5.2000E-09  2.1000E-09  1.1000E-09  1.5000E-09   0.000       0.000       0.000       0.000       0.000    
   7   8.5000E-09  5.2000E-09  2.1000E-09  1.2000E-09  2.0000E-09   0.000       0.000       0.000       0.000       0.000    
   8   5.0000E-10  5.2000E-09  2.1000E-09  1.2000E-09  5.0000E-09   0.000       0.000       0.000       0.000       0.000    
   9   5.0000E-10  5.2000E-09  2.1000E-09  1.2000E-09  5.0000E-09   0.000       0.000       0.000       0.000       0.000    
  10   5.0000E-10  5.2000E-09  2.1000E-09  1.2000E-09  5.8000E-09   0.000       0.000       0.000       0.000       0.000    
  11   1.0000E-10  1.1000E-09  1.1000E-09  1.2000E-09  5.0000E-09   0.000       0.000       0.000       0.000       0.000    
  12   1.1000E-09  1.1000E-09  1.1000E-09  1.1000E-09  2.0000E-09   0.000       0.000       0.000       0.000       0.000    
  13   1.1000E-09  2.2000E-09  2.2000E-09  2.1000E-09  1.0000E-09   0.000       0.000       0.000       0.000       0.000    
  14   2.0000E-10  5.5000E-09  5.5000E-09  5.2000E-09  1.0000E-09   0.000       0.000       0.000       0.000       0.000    
  15    0.000      8.8000E-09  8.8000E-09   0.000       0.000       0.000       0.000       0.000       0.000       0.000    

                  ET RATE =  5.000000E-10

 USING ET EXTINCTION DEPTH FROM PREVIOUS STRESS PERIOD. CURRENT PERIOD IS:      40

 USING EXTINCTION WATER CONTENT FROM PREVIOUS STRESS PERIOD. CURRENT PERIOD IS:      40

 USING AIR ENTRY PRESSURE FROM PREVIOUS STRESS PERIOD. CURRENT PERIOD IS:      40

 USING ROOT PRESSURE HEAD FROM PREVIOUS STRESS PERIOD. CURRENT PERIOD IS:      40

 USING ROOT ACTIVITY FROM PREVIOUS STRESS PERIOD. CURRENT PERIOD IS:      40

 PROCESSING AG STRESS PERIOD DATA

 READING AG STRESS PERIOD DATA

 READING IRRIGATION SEGMENT

 READING IRRIGATION WELL

 READING SUPPLEMENTAL WELL

 END PROCESSING AG STRESS PERIOD DATA OPTIONS
 
 SOLVING FOR HEAD 
                                                   Max.-Head-Change                         Max.-Flux-Residual
  Residual-Control   Outer-Iter.   Inner-Iter.     Column Row Layer    Maximum-Head-Change  Column Row Layer    Maximum-Flux-Residual          L2-NORM 
          0                 1           2             4   13     1       0.1135203069E-01       4   13    1         0.6521952041E+00      0.1520504645E+01
          0                 2           2             3   13     1       0.1307927926E-02       3   13    1         0.7655118009E-01      0.1588899570E+00
          0                 3           2             3   13     1       0.1666532812E-03       3   13    1         0.9539099851E-02      0.1361274885E-01
          0                 4           1             3   13     1       0.2159315910E-04       3   13    1         0.1248490162E-02      0.1303884119E-02

    ------------------------------------------------
       NWT REQUIRED            4 OUTER ITERATIONS 
       AND A TOTAL OF          7 INNER ITERATIONS.
    ------------------------------------------------

 NO OUTPUT CONTROL FOR STRESS PERIOD   40   TIME STEP    1
 
 SOLVING FOR HEAD 
                                                   Max.-Head-Change                         Max.-Flux-Residual
  Residual-Control   Outer-Iter.   Inner-Iter.     Column Row Layer    Maximum-Head-Change  Column Row Layer    Maximum-Flux-Residual          L2-NORM 
          0                 1           2             4   13     1       0.1029693651E-01       4   13    1         0.5914180573E+00      0.1449489538E+01
          0                 2           2             3   13     1       0.1171820172E-02       3   13    1         0.6861392797E-01      0.1507031294E+00
          0                 3           2             3   13     1       0.1497548777E-03       3   13    1         0.8570207263E-02      0.1269042776E-01
          0                 4           1             3   13     1       0.1942600456E-04       3   13    1         0.1123255210E-02      0.1180574092E-02

    ------------------------------------------------
       NWT REQUIRED            4 OUTER ITERATIONS 
       AND A TOTAL OF          7 INNER ITERATIONS.
    ------------------------------------------------

 NO OUTPUT CONTROL FOR STRESS PERIOD   40   TIME STEP    2
 
 SOLVING FOR HEAD 
                                                   Max.-Head-Change                         Max.-Flux-Residual
  Residual-Control   Outer-Iter.   Inner-Iter.     Column Row Layer    Maximum-Head-Change  Column Row Layer    Maximum-Flux-Residual          L2-NORM 
          0                 1           2             4   13     1       0.9342440048E-02       4   13    1         0.5364351650E+00      0.1387314691E+01
          0                 2           2             3   13     1       0.1047366935E-02       3   13    1         0.6135584878E-01      0.1434781182E+00
          0                 3           2             3   13     1       0.1333909658E-03       3   13    1         0.7631918209E-02      0.1183745632E-01
          0                 4           1             3   13     1       0.1730328987E-04       3   13    1         0.1000628874E-02      0.1061443231E-02

    ------------------------------------------------
       NWT REQUIRED            4 OUTER ITERATIONS 
       AND A TOTAL OF          7 INNER ITERATIONS.
    ------------------------------------------------

 NO OUTPUT CONTROL FOR STRESS PERIOD   40   TIME STEP    3
 
 SOLVING FOR HEAD 
                                                   Max.-Head-Change                         Max.-Flux-Residual
  Residual-Control   Outer-Iter.   Inner-Iter.     Column Row Layer    Maximum-Head-Change  Column Row Layer    Maximum-Flux-Residual          L2-NORM 
          0                 1           2             4   13     1       0.8570794918E-02       4   13    1         0.4920238354E+00      0.1334858679E+01
          0                 2           2             4   13     1       0.1098207389E-02       4   13    1         0.6331008149E-01      0.1432193554E+00
          0                 3           2             4   13     1       0.1406545249E-03       4   13    1         0.8080039370E-02      0.1362495728E-01
          0                 4           1             4   13     1       0.1804246830E-04       4   13    1         0.1037621674E-02      0.1459788247E-02

    ------------------------------------------------
       NWT REQUIRED            4 OUTER ITERATIONS 
       AND A TOTAL OF          7 INNER ITERATIONS.
    ------------------------------------------------

 NO OUTPUT CONTROL FOR STRESS PERIOD   40   TIME STEP    4
 
 SOLVING FOR HEAD 
                                                   Max.-Head-Change                         Max.-Flux-Residual
  Residual-Control   Outer-Iter.   Inner-Iter.     Column Row Layer    Maximum-Head-Change  Column Row Layer    Maximum-Flux-Residual          L2-NORM 
          0                 1           2             4   13     1       0.8148014174E-02       4   13    1         0.4677702388E+00      0.1295084336E+01
          0                 2           2             4   13     1       0.1040258745E-02       4   13    1         0.6001302664E-01      0.1381606097E+00
          0                 3           2             4   13     1       0.1327474856E-03       4   13    1         0.7627170759E-02      0.1290148062E-01
          0                 4           1             4   13     1       0.1697323321E-04       4   13    1         0.9764231963E-03      0.1354330957E-02

    ------------------------------------------------
       NWT REQUIRED            4 OUTER ITERATIONS 
       AND A TOTAL OF          7 INNER ITERATIONS.
    ------------------------------------------------

 NO OUTPUT CONTROL FOR STRESS PERIOD   40   TIME STEP    5
 
 SOLVING FOR HEAD 
                                                   Max.-Head-Change                         Max.-Flux-Residual
  Residual-Control   Outer-Iter.   Inner-Iter.     Column Row Layer    Maximum-Head-Change  Column Row Layer    Maximum-Flux-Residual          L2-NORM 
          0                 1           2             2   13     1       0.7200957431E-02       4   13    1         0.4117224964E+00      0.1248276442E+01
          0                 2           2             4   13     1       0.9193516310E-03       4   13    1         0.5305886134E-01      0.1319774247E+00
          0                 3           1             4   13     1       0.1176668734E-03       4   13    1         0.6758245217E-02      0.1196212832E-01
          0                 4           1             4   13     1       0.1508376758E-04       4   13    1         0.8677809419E-03      0.1213269035E-02

    ------------------------------------------------
       NWT REQUIRED            4 OUTER ITERATIONS 
       AND A TOTAL OF          6 INNER ITERATIONS.
    ------------------------------------------------

 NO OUTPUT CONTROL FOR STRESS PERIOD   40   TIME STEP    6
 
 SOLVING FOR HEAD 
                                                   Max.-Head-Change                         Max.-Flux-Residual
  Residual-Control   Outer-Iter.   Inner-Iter.     Column Row Layer    Maximum-Head-Change  Column Row Layer    Maximum-Flux-Residual          L2-NORM 
          0                 1           2             2   13     1       0.6672630812E-02       2   13    1         0.3761419498E+00      0.1208168233E+01
          0                 2           2             4   13     1       0.8105387974E-03       4   13    1         0.4679870645E-01      0.1266492910E+00
          0                 3           1             4   13     1       0.1034589344E-03       4   13    1         0.5939260536E-02      0.1113303892E-01
          0                 4           1             4   13     1       0.1323946651E-04       4   13    1         0.7616124212E-03      0.1083922526E-02

    ------------------------------------------------
       NWT REQUIRED            4 OUTER ITERATIONS 
       AND A TOTAL OF          6 INNER ITERATIONS.
    ------------------------------------------------

 NO OUTPUT CONTROL FOR STRESS PERIOD   40   TIME STEP    7
 
 SOLVING FOR HEAD 
                                                   Max.-Head-Change                         Max.-Flux-Residual
  Residual-Control   Outer-Iter.   Inner-Iter.     Column Row Layer    Maximum-Head-Change  Column Row Layer    Maximum-Flux-Residual          L2-NORM 
          0                 1           2             4    7     1       0.6473456741E-02       2   13    1         0.3484745280E+00      0.1173688727E+01
          0                 2           2             4   13     1       0.7139517847E-03       4   13    1         0.4124036121E-01      0.1221117626E+00
          0                 3           1             4   13     1       0.9115977989E-04       4   13    1         0.5230226984E-02      0.1044456151E-01

    ------------------------------------------------
       NWT REQUIRED            3 OUTER ITERATIONS 
       AND A TOTAL OF          5 INNER ITERATIONS.
    ------------------------------------------------

 NO OUTPUT CONTROL FOR STRESS PERIOD   40   TIME STEP    8
 
 SOLVING FOR HEAD 
                                                   Max.-Head-Change                         Max.-Flux-Residual
  Residual-Control   Outer-Iter.   Inner-Iter.     Column Row Layer    Maximum-Head-Change  Column Row Layer    Maximum-Flux-Residual          L2-NORM 
          0                 1           2             4    7     1       0.6428513468E-02       4    7    1         0.3363550881E+00      0.1143969951E+01
          0                 2           2             4   13     1       0.6327165014E-03       4   13    1         0.3656682988E-01      0.1183044181E+00
          0                 3           1             4   13     1       0.8103615912E-04       4   13    1         0.4647172096E-02      0.9869383268E-02

    ------------------------------------------------
       NWT REQUIRED            3 OUTER ITERATIONS 
       AND A TOTAL OF          5 INNER ITERATIONS.
    ------------------------------------------------

 NO OUTPUT CONTROL FOR STRESS PERIOD   40   TIME STEP    9
 
 SOLVING FOR HEAD 
                                                   Max.-Head-Change                         Max.-Flux-Residual
  Residual-Control   Outer-Iter.   Inner-Iter.     Column Row Layer    Maximum-Head-Change  Column Row Layer    Maximum-Flux-Residual          L2-NORM 
          0                 1           2             4    7     1       0.6384074105E-02       4    7    1         0.3340101565E+00      0.1118201266E+01
          0                 2           2             4    7     1      -0.6209970069E-03       4    7    1        -0.3340106160E-01      0.1150061885E+00
          0                 3           1             4   13     1       0.7177325511E-04       4   13    1         0.4113819937E-02      0.9363336214E-02

    ------------------------------------------------
       NWT REQUIRED            3 OUTER ITERATIONS 
       AND A TOTAL OF          5 INNER ITERATIONS.
    ------------------------------------------------

 NO OUTPUT CONTROL FOR STRESS PERIOD   40   TIME STEP   10
 
 SOLVING FOR HEAD 
                                                   Max.-Head-Change                         Max.-Flux-Residual
  Residual-Control   Outer-Iter.   Inner-Iter.     Column Row Layer    Maximum-Head-Change  Column Row Layer    Maximum-Flux-Residual          L2-NORM 
          0                 1           2             4    7     1       0.6340394321E-02       4    7    1         0.3317060287E+00      0.1095748216E+01
          0                 2           2             4    7     1      -0.6167481420E-03       4    7    1        -0.3317064794E-01      0.1121475227E+00
          0                 3           1             4   13     1       0.6348324042E-04       4   13    1         0.3636587953E-02      0.8928110356E-02

    ------------------------------------------------
       NWT REQUIRED            3 OUTER ITERATIONS 
       AND A TOTAL OF          5 INNER ITERATIONS.
    ------------------------------------------------

 NO OUTPUT CONTROL FOR STRESS PERIOD   40   TIME STEP   11
 
 SOLVING FOR HEAD 
                                                   Max.-Head-Change                         Max.-Flux-Residual
  Residual-Control   Outer-Iter.   Inner-Iter.     Column Row Layer    Maximum-Head-Change  Column Row Layer    Maximum-Flux-Residual          L2-NORM 
          0                 1           2             4    7     1       0.6297447235E-02       4    7    1         0.3294412841E+00      0.1076079221E+01
          0                 2           2             4    7     1      -0.6125705496E-03       4    7    1        -0.3294417265E-01      0.1096808866E+00
          0                 3           1             4   13     1       0.5613340114E-04       4   13    1         0.3213468458E-02      0.8561817890E-02

    ------------------------------------------------
       NWT REQUIRED            3 OUTER ITERATIONS 
       AND A TOTAL OF          5 INNER ITERATIONS.
    ------------------------------------------------

 NO OUTPUT CONTROL FOR STRESS PERIOD   40   TIME STEP   12
 
 SOLVING FOR HEAD 
                                                   Max.-Head-Change                         Max.-Flux-Residual
  Residual-Control   Outer-Iter.   Inner-Iter.     Column Row Layer    Maximum-Head-Change  Column Row Layer    Maximum-Flux-Residual          L2-NORM 
          0                 1           2             4    7     1       0.6255076353E-02       4    7    1         0.3272071901E+00      0.1058745550E+01
          0                 2           2             4    7     1      -0.6084490055E-03       4    7    1        -0.3272076241E-01      0.1075584049E+00
          0                 3           1             4   13     1       0.4989009676E-04       4   13    1         0.2854246822E-02      0.8256537026E-02

    ------------------------------------------------
       NWT REQUIRED            3 OUTER ITERATIONS 
       AND A TOTAL OF          5 INNER ITERATIONS.
    ------------------------------------------------

 NO OUTPUT CONTROL FOR STRESS PERIOD   40   TIME STEP   13
 
 SOLVING FOR HEAD 
                                                   Max.-Head-Change                         Max.-Flux-Residual
  Residual-Control   Outer-Iter.   Inner-Iter.     Column Row Layer    Maximum-Head-Change  Column Row Layer    Maximum-Flux-Residual          L2-NORM 
          0                 1           2             4    7     1       0.6213266842E-02       4    7    1         0.3250029714E+00      0.1043366291E+01
          0                 2           2             4    7     1      -0.6043820689E-03       4    7    1        -0.3250033976E-01      0.1057137326E+00
          0                 3           1             3   13     1       0.4464860179E-04       4   13    1         0.2549119607E-02      0.8002866474E-02

    ------------------------------------------------
       NWT REQUIRED            3 OUTER ITERATIONS 
       AND A TOTAL OF          5 INNER ITERATIONS.
    ------------------------------------------------

 NO OUTPUT CONTROL FOR STRESS PERIOD   40   TIME STEP   14
 
 SOLVING FOR HEAD 
                                                   Max.-Head-Change                         Max.-Flux-Residual
  Residual-Control   Outer-Iter.   Inner-Iter.     Column Row Layer    Maximum-Head-Change  Column Row Layer    Maximum-Flux-Residual          L2-NORM 
          0                 1           2             4    7     1       0.6172001057E-02       4    7    1         0.3228278588E+00      0.1029638462E+01
          0                 2           2             4    7     1      -0.6003680215E-03       4    7    1        -0.3228282772E-01      0.1040920235E+00
          0                 3           1             4    7     1       0.4088283031E-04       3   13    1         0.2291110744E-02      0.7783702804E-02

    ------------------------------------------------
       NWT REQUIRED            3 OUTER ITERATIONS 
       AND A TOTAL OF          5 INNER ITERATIONS.
    ------------------------------------------------

 NO OUTPUT CONTROL FOR STRESS PERIOD   40   TIME STEP   15
 
 SOLVING FOR HEAD 
                                                   Max.-Head-Change                         Max.-Flux-Residual
  Residual-Control   Outer-Iter.   Inner-Iter.     Column Row Layer    Maximum-Head-Change  Column Row Layer    Maximum-Flux-Residual          L2-NORM 
          0                 1           2             4    7     1       0.6131401331E-02       4    7    1         0.3206882766E+00      0.1017298066E+01
          0                 2           2             4    7     1      -0.5964187640E-03       4    7    1        -0.3206886874E-01      0.1026472693E+00
          0                 3           1             4    7     1       0.4061390084E-04       4    7    1         0.2244821390E-02      0.7592293916E-02

    ------------------------------------------------
       NWT REQUIRED            3 OUTER ITERATIONS 
       AND A TOTAL OF          5 INNER ITERATIONS.
    ------------------------------------------------

 NO OUTPUT CONTROL FOR STRESS PERIOD   40   TIME STEP   16
 
 SOLVING FOR HEAD 
                                                   Max.-Head-Change                         Max.-Flux-Residual
  Residual-Control   Outer-Iter.   Inner-Iter.     Column Row Layer    Maximum-Head-Change  Column Row Layer    Maximum-Flux-Residual          L2-NORM 
          0                 1           2             4    7     1       0.6091444692E-02       4    7    1         0.3185832287E+00      0.1006143028E+01
          0                 2           2             4    7     1      -0.5925320618E-03       4    7    1        -0.3185836323E-01      0.1013613137E+00
          0                 3           1             4    7     1       0.4034923090E-04       4    7    1         0.2230086006E-02      0.7429206232E-02

    ------------------------------------------------
       NWT REQUIRED            3 OUTER ITERATIONS 
       AND A TOTAL OF          5 INNER ITERATIONS.
    ------------------------------------------------

 NO OUTPUT CONTROL FOR STRESS PERIOD   40   TIME STEP   17
 
 SOLVING FOR HEAD 
                                                   Max.-Head-Change                         Max.-Flux-Residual
  Residual-Control   Outer-Iter.   Inner-Iter.     Column Row Layer    Maximum-Head-Change  Column Row Layer    Maximum-Flux-Residual          L2-NORM 
          0                 1           2             4    7     1       0.6051978011E-02       4    7    1         0.3165041848E+00      0.9959807017E+00
          0                 2           2             4    7     1      -0.5886930193E-03       4    7    1        -0.3165045811E-01      0.1002068482E+00
          0                 3           1             4    7     1       0.4008780645E-04       4    7    1         0.2215532651E-02      0.7288260336E-02

    ------------------------------------------------
       NWT REQUIRED            3 OUTER ITERATIONS 
       AND A TOTAL OF          5 INNER ITERATIONS.
    ------------------------------------------------

 NO OUTPUT CONTROL FOR STRESS PERIOD   40   TIME STEP   18
 
 SOLVING FOR HEAD 
                                                   Max.-Head-Change                         Max.-Flux-Residual
  Residual-Control   Outer-Iter.   Inner-Iter.     Column Row Layer    Maximum-Head-Change  Column Row Layer    Maximum-Flux-Residual          L2-NORM 
          0                 1           2             4    7     1       0.6012988988E-02       4    7    1         0.3144505444E+00      0.9866758469E+00
          0                 2           2             4    7     1      -0.5849004404E-03       4    7    1        -0.3144509340E-01      0.9916371375E-01
          0                 3           1             4    7     1       0.3982954609E-04       4    7    1         0.2201157108E-02      0.7165656937E-02

    ------------------------------------------------
       NWT REQUIRED            3 OUTER ITERATIONS 
       AND A TOTAL OF          5 INNER ITERATIONS.
    ------------------------------------------------

 NO OUTPUT CONTROL FOR STRESS PERIOD   40   TIME STEP   19
 
 SOLVING FOR HEAD 
                                                   Max.-Head-Change                         Max.-Flux-Residual
  Residual-Control   Outer-Iter.   Inner-Iter.     Column Row Layer    Maximum-Head-Change  Column Row Layer    Maximum-Flux-Residual          L2-NORM 
          0                 1           2             4    7     1       0.5974466573E-02       4    7    1         0.3124216698E+00      0.9780983226E+00
          0                 2           2             4    7     1      -0.5811532497E-03       4    7    1        -0.3124220525E-01      0.9821232136E-01
          0                 3           1             4    7     1       0.3957437633E-04       4    7    1         0.2186954946E-02      0.7056849495E-02

    ------------------------------------------------
       NWT REQUIRED            3 OUTER ITERATIONS 
       AND A TOTAL OF          5 INNER ITERATIONS.
    ------------------------------------------------

 NO OUTPUT CONTROL FOR STRESS PERIOD   40   TIME STEP   20
 
 SOLVING FOR HEAD 
                                                   Max.-Head-Change                         Max.-Flux-Residual
  Residual-Control   Outer-Iter.   Inner-Iter.     Column Row Layer    Maximum-Head-Change  Column Row Layer    Maximum-Flux-Residual          L2-NORM 
          0                 1           2             4    7     1       0.5936533098E-02       4    7    1         0.3104243276E+00      0.9701507709E+00
          0                 2           2             4    7     1      -0.5774633473E-03       4    7    1        -0.3104247037E-01      0.9734367926E-01
          0                 3           1             4    7     1       0.3932310801E-04       4    7    1         0.2172973504E-02      0.6964933858E-02

    ------------------------------------------------
       NWT REQUIRED            3 OUTER ITERATIONS 
       AND A TOTAL OF          5 INNER ITERATIONS.
    ------------------------------------------------

 NO OUTPUT CONTROL FOR STRESS PERIOD   40   TIME STEP   21
 
 SOLVING FOR HEAD 
                                                   Max.-Head-Change                         Max.-Flux-Residual
  Residual-Control   Outer-Iter.   Inner-Iter.     Column Row Layer    Maximum-Head-Change  Column Row Layer    Maximum-Flux-Residual          L2-NORM 
          0                 1           2             4    7     1       0.5899169626E-02       4    7    1         0.3084575212E+00      0.9627426218E+00
          0                 2           2             4    7     1      -0.5738288906E-03       4    7    1        -0.3084578907E-01      0.9654449563E-01
          0                 3           1             4    7     1       0.3907561534E-04       4    7    1         0.2159205818E-02      0.6882583498E-02

    ------------------------------------------------
       NWT REQUIRED            3 OUTER ITERATIONS 
       AND A TOTAL OF          5 INNER ITERATIONS.
    ------------------------------------------------

 NO OUTPUT CONTROL FOR STRESS PERIOD   40   TIME STEP   22
 
 SOLVING FOR HEAD 
                                                   Max.-Head-Change                         Max.-Flux-Residual
  Residual-Control   Outer-Iter.   Inner-Iter.     Column Row Layer    Maximum-Head-Change  Column Row Layer    Maximum-Flux-Residual          L2-NORM 
          0                 1           2             4    7     1       0.5862227915E-02       4    7    1         0.3065129290E+00      0.9558093169E+00
          0                 2           2             4    7     1      -0.5702354605E-03       4    7    1        -0.3065132925E-01      0.9580375511E-01
          0                 3           1             4    7     1       0.3883091600E-04       4    7    1         0.2145593623E-02      0.6809113289E-02

    ------------------------------------------------
       NWT REQUIRED            3 OUTER ITERATIONS 
       AND A TOTAL OF          5 INNER ITERATIONS.
    ------------------------------------------------

 NO OUTPUT CONTROL FOR STRESS PERIOD   40   TIME STEP   23
 
 SOLVING FOR HEAD 
                                                   Max.-Head-Change                         Max.-Flux-Residual
  Residual-Control   Outer-Iter.   Inner-Iter.     Column Row Layer    Maximum-Head-Change  Column Row Layer    Maximum-Flux-Residual          L2-NORM 
          0                 1           2             4    7     1       0.5825696046E-02       4    7    1         0.3045902044E+00      0.9492758993E+00
          0                 2           2             4    7     1      -0.5666818971E-03       4    7    1        -0.3045905619E-01      0.9511209916E-01
          0                 3           1             4    7     1       0.3858893178E-04       4    7    1         0.2132134521E-02      0.6742697200E-02

    ------------------------------------------------
       NWT REQUIRED            3 OUTER ITERATIONS 
       AND A TOTAL OF          5 INNER ITERATIONS.
    ------------------------------------------------

 NO OUTPUT CONTROL FOR STRESS PERIOD   40   TIME STEP   24
 
 SOLVING FOR HEAD 
                                                   Max.-Head-Change                         Max.-Flux-Residual
  Residual-Control   Outer-Iter.   Inner-Iter.     Column Row Layer    Maximum-Head-Change  Column Row Layer    Maximum-Flux-Residual          L2-NORM 
          0                 1           2             4    7     1       0.5789700361E-02       4    7    1         0.3026960693E+00      0.9431057618E+00
          0                 2           2             4    7     1      -0.5631804894E-03       4    7    1        -0.3026964208E-01      0.9446356219E-01
          0                 3           1             4    7     1       0.3835049885E-04       4    7    1         0.2118875525E-02      0.6682821473E-02

    ------------------------------------------------
       NWT REQUIRED            3 OUTER ITERATIONS 
       AND A TOTAL OF          5 INNER ITERATIONS.
    ------------------------------------------------

 NO OUTPUT CONTROL FOR STRESS PERIOD   40   TIME STEP   25
 
 SOLVING FOR HEAD 
                                                   Max.-Head-Change                         Max.-Flux-Residual
  Residual-Control   Outer-Iter.   Inner-Iter.     Column Row Layer    Maximum-Head-Change  Column Row Layer    Maximum-Flux-Residual          L2-NORM 
          0                 1           2             4    7     1       0.5754092015E-02       4    7    1         0.3008223947E+00      0.9372460694E+00
          0                 2           2             4    7     1      -0.5597167598E-03       4    7    1        -0.3008227404E-01      0.9385215427E-01
          0                 3           1             4    7     1       0.3811463180E-04       4    7    1         0.2105759759E-02      0.6628506057E-02

    ------------------------------------------------
       NWT REQUIRED            3 OUTER ITERATIONS 
       AND A TOTAL OF          5 INNER ITERATIONS.
    ------------------------------------------------

 NO OUTPUT CONTROL FOR STRESS PERIOD   40   TIME STEP   26
 
 SOLVING FOR HEAD 
                                                   Max.-Head-Change                         Max.-Flux-Residual
  Residual-Control   Outer-Iter.   Inner-Iter.     Column Row Layer    Maximum-Head-Change  Column Row Layer    Maximum-Flux-Residual          L2-NORM 
          0                 1           2             4    7     1       0.5718994616E-02       4    7    1         0.2989761431E+00      0.9316711391E+00
          0                 2           2             4    7     1      -0.5563027314E-03       4    7    1        -0.2989764832E-01      0.9327386958E-01
          0                 3           1             4    7     1       0.3788214954E-04       4    7    1         0.2092835957E-02      0.6578294071E-02

    ------------------------------------------------
       NWT REQUIRED            3 OUTER ITERATIONS 
       AND A TOTAL OF          5 INNER ITERATIONS.
    ------------------------------------------------

 NO OUTPUT CONTROL FOR STRESS PERIOD   40   TIME STEP   27
 
 SOLVING FOR HEAD 
                                                   Max.-Head-Change                         Max.-Flux-Residual
  Residual-Control   Outer-Iter.   Inner-Iter.     Column Row Layer    Maximum-Head-Change  Column Row Layer    Maximum-Flux-Residual          L2-NORM 
          0                 1           2             4    7     1       0.5684262019E-02       4    7    1         0.2971490432E+00      0.9263395688E+00
          0                 2           2             4    7     1      -0.5529241886E-03       4    7    1        -0.2971493777E-01      0.9272360901E-01
          0                 3           1             4    7     1       0.3765208312E-04       4    7    1         0.2080046216E-02      0.6531664005E-02

    ------------------------------------------------
       NWT REQUIRED            3 OUTER ITERATIONS 
       AND A TOTAL OF          5 INNER ITERATIONS.
    ------------------------------------------------

 NO OUTPUT CONTROL FOR STRESS PERIOD   40   TIME STEP   28
 
 SOLVING FOR HEAD 
                                                   Max.-Head-Change                         Max.-Flux-Residual
  Residual-Control   Outer-Iter.   Inner-Iter.     Column Row Layer    Maximum-Head-Change  Column Row Layer    Maximum-Flux-Residual          L2-NORM 
          0                 1           2             4    7     1       0.5650020042E-02       4    7    1         0.2953481981E+00      0.9212295606E+00
          0                 2           2             4    7     1      -0.5495933703E-03       4    7    1        -0.2953485273E-01      0.9219893297E-01
          0                 3           1             4    7     1       0.3742526717E-04       4    7    1         0.2067440278E-02      0.6488751352E-02

    ------------------------------------------------
       NWT REQUIRED            3 OUTER ITERATIONS 
       AND A TOTAL OF          5 INNER ITERATIONS.
    ------------------------------------------------

 NO OUTPUT CONTROL FOR STRESS PERIOD   40   TIME STEP   29
 
 SOLVING FOR HEAD 
                                                   Max.-Head-Change                         Max.-Flux-Residual
  Residual-Control   Outer-Iter.   Inner-Iter.     Column Row Layer    Maximum-Head-Change  Column Row Layer    Maximum-Flux-Residual          L2-NORM 
          0                 1           2             4    7     1       0.5616119767E-02       4    7    1         0.2935654506E+00      0.9163191831E+00
          0                 2           2             4    7     1      -0.5462957900E-03       4    7    1        -0.2935657744E-01      0.9169661321E-01
          0                 3           1             4    7     1       0.3720071429E-04       4    7    1         0.2054961002E-02      0.6448217220E-02

    ------------------------------------------------
       NWT REQUIRED            3 OUTER ITERATIONS 
       AND A TOTAL OF          5 INNER ITERATIONS.
    ------------------------------------------------

 NO OUTPUT CONTROL FOR STRESS PERIOD   40   TIME STEP   30



 STREAM LISTING     PERIOD     40   STEP       30

 LAYER ROW COL. STREAM  RCH.  FLOW INTO     FLOW TO   FLOW OUT OF   OVRLND.     DIRECT     STREAM       STREAM     STREAM     STREAM   STREAMBED  STREAMBED
                SEG.NO.  NO.  STRM. RCH.    AQUIFER    STRM. RCH.    RUNOFF     PRECIP       ET          HEAD       DEPTH      WIDTH   CONDCTNC.   GRADIENT

   1    1    1     1     1    3.6749E+01  2.9261E-01   3.6456E+01  0.000E+00  0.000E+00  0.000E+00  1.09435E+03  1.306E+00  1.510E+01  6.795E-02  1.435E+00
   1    2    2     1     2    3.6456E+01  4.5309E-01   3.6003E+01  0.000E+00  0.000E+00  0.000E+00  1.08936E+03  1.303E+00  1.504E+01  1.053E-01  1.434E+00
   1    3    3     1     3    3.6003E+01  3.8635E-01   3.5617E+01  0.000E+00  0.000E+00  0.000E+00  1.08372E+03  1.300E+00  1.497E+01  8.985E-02  1.433E+00
   1    3    4     1     4    3.5617E+01  3.5571E-01   3.5261E+01  0.000E+00  0.000E+00  0.000E+00  1.07870E+03  1.297E+00  1.492E+01  8.278E-02  1.432E+00
   1    4    5     2     1    3.3261E+01  3.4544E-01   3.2916E+01  0.000E+00  0.000E+00  0.000E+00  1.07336E+03  1.429E+00  1.200E+01  7.800E-02  1.476E+00
   1    5    6     2     2    3.2916E+01  2.6525E-01   3.2650E+01  0.000E+00  0.000E+00  0.000E+00  1.06793E+03  1.421E+00  1.200E+01  6.000E-02  1.474E+00
   1    6    6     2     3    3.2650E+01  2.6483E-01   3.2386E+01  0.000E+00  0.000E+00  0.000E+00  1.06321E+03  1.414E+00  1.200E+01  6.000E-02  1.471E+00
   1    7    6     2     4    3.2386E+01  2.6442E-01   3.2121E+01  0.000E+00  0.000E+00  0.000E+00  1.05848E+03  1.407E+00  1.200E+01  6.000E-02  1.469E+00
   1    8    6     2     5    3.2121E+01  2.6400E-01   3.1857E+01  0.000E+00  0.000E+00  0.000E+00  1.05376E+03  1.400E+00  1.200E+01  6.000E-02  1.467E+00
   1    3    5     3     1    2.0000E+00  2.8252E-01   1.7175E+00  0.000E+00  0.000E+00  0.000E+00  1.07555E+03  1.909E+00  9.636E+00  7.227E-02  1.955E+00
   1    3    6     3     2    1.7175E+00  2.4905E-01   1.4684E+00  0.000E+00  0.000E+00  0.000E+00  1.07264E+03  1.727E+00  8.909E+00  6.682E-02  1.864E+00
   1    3    7     3     3    1.4684E+00  1.9718E-01   1.2712E+00  0.000E+00  0.000E+00  0.000E+00  1.06987E+03  1.555E+00  8.218E+00  5.547E-02  1.777E+00
   1    4    8     3     4    1.2712E+00  2.2567E-01   1.0456E+00  0.000E+00  0.000E+00  0.000E+00  1.06682E+03  1.364E+00  7.455E+00  6.709E-02  1.682E+00
   1    5    8     3     5    1.0456E+00  1.5790E-01   8.8768E-01  0.000E+00  0.000E+00  0.000E+00  1.06362E+03  1.164E+00  6.655E+00  4.991E-02  1.582E+00
   1    6    8     3     6    8.8768E-01  5.5980E-02   8.3170E-01  0.000E+00  0.000E+00  0.000E+00  1.06158E+03  1.036E+00  6.145E+00  1.844E-02  1.518E+00
   1    5   10     4     1    1.0000E+01  9.0919E-02   9.9091E+00  0.000E+00  0.000E+00  0.000E+00  1.07836E+03  6.368E-01  1.000E+01  2.500E-02  1.212E+00
   1    5    9     4     2    9.9091E+00  1.8158E-01   9.7275E+00  0.000E+00  0.000E+00  0.000E+00  1.07154E+03  6.315E-01  1.000E+01  5.000E-02  1.211E+00
   1    6    8     4     3    9.7275E+00  1.2689E-01   9.6006E+00  0.000E+00  0.000E+00  0.000E+00  1.06381E+03  6.256E-01  1.000E+01  3.500E-02  1.209E+00
   1    6    8     5     1    1.0432E+01  2.2686E-01   1.0205E+01  0.000E+00  0.000E+00  0.000E+00  1.05868E+03  6.790E-01  1.542E+01  6.166E-02  1.226E+00
   1    7    7     5     2    1.0205E+01  2.7894E-01   9.9265E+00  0.000E+00  0.000E+00  0.000E+00  1.05417E+03  6.732E-01  1.519E+01  7.594E-02  1.224E+00
   1    8    7     5     3    9.9265E+00  1.9221E-01   9.7343E+00  0.000E+00  0.000E+00  0.000E+00  1.04992E+03  6.676E-01  1.497E+01  5.241E-02  1.223E+00
   1    8    6     5     4    9.7343E+00  1.3577E-01   9.5985E+00  0.000E+00  0.000E+00  0.000E+00  1.04691E+03  6.637E-01  1.482E+01  3.706E-02  1.221E+00
   1    9    6     6     1    4.1456E+01  2.7904E-01   4.1177E+01  0.000E+00  0.000E+00  0.000E+00  1.04438E+03  1.651E+00  1.200E+01  6.000E-02  1.550E+00
   1   10    7     6     2    4.1177E+01  2.7863E-01   4.0898E+01  0.000E+00  0.000E+00  0.000E+00  1.03983E+03  1.644E+00  1.200E+01  6.000E-02  1.548E+00
   1   11    7     6     3    4.0898E+01  2.7823E-01   4.0620E+01  0.000E+00  0.000E+00  0.000E+00  1.03527E+03  1.637E+00  1.200E+01  6.000E-02  1.546E+00
   1   12    7     6     4    4.0620E+01  2.7783E-01   4.0342E+01  0.000E+00  0.000E+00  0.000E+00  1.03072E+03  1.630E+00  1.200E+01  6.000E-02  1.543E+00
   1   13    7     6     5    4.0342E+01  2.1754E-02   4.0320E+01  0.000E+00  0.000E+00  0.000E+00  1.02754E+03  1.627E+00  1.200E+01  2.400E-02  3.021E-01
   1   14    9     7     1    1.5000E+02  1.3875E+00   1.4861E+02  0.000E+00  0.000E+00  0.000E+00  1.03987E+03  2.288E+00  5.529E+01  5.593E-01  8.270E-01
   1   13    8     7     2    1.4861E+02  1.9857E+00   1.4663E+02  0.000E+00  0.000E+00  0.000E+00  1.03478E+03  2.279E+00  5.525E+01  6.147E-01  1.077E+00
   1   13    7     7     3    1.4663E+02  1.7078E+00   1.4492E+02  0.000E+00  0.000E+00  0.000E+00  1.02969E+03  2.269E+00  5.521E+01  5.584E-01  1.020E+00
   1   13    6     8     1    1.8524E+02  1.2172E+00   1.8402E+02  0.000E+00  0.000E+00  0.000E+00  1.02492E+03  3.045E+00  4.415E+01  4.499E-01  9.018E-01
   1   13    5     8     2    1.8402E+02  4.1762E-01   1.8360E+02  0.000E+00  0.000E+00  0.000E+00  1.01866E+03  3.040E+00  4.408E+01  4.492E-01  3.099E-01
   1   13    4     8     3    1.8360E+02 -1.7311E+00   1.8534E+02  0.000E+00  0.000E+00  0.000E+00  1.01242E+03  3.044E+00  4.414E+01  4.498E+00 -1.283E-01
   1   13    3     8     4    1.8534E+02 -3.3023E+00   1.8864E+02  0.000E+00  0.000E+00  0.000E+00  1.00618E+03  3.060E+00  4.436E+01  4.521E+00 -2.435E-01
   1   13    2     8     5    1.8864E+02 -2.4153E+00   1.9105E+02  0.000E+00  0.000E+00  0.000E+00  9.99952E+02  3.077E+00  4.462E+01  4.547E+00 -1.771E-01
   1   13    1     8     6    1.9105E+02 -1.8727E+00   1.9293E+02  0.000E+00  0.000E+00  0.000E+00  9.94965E+02  3.090E+00  4.480E+01  2.739E+00 -2.279E-01
   1    8    6     9     1    0.0000E+00  0.0000E+00   0.0000E+00  0.000E+00  0.000E+00  0.000E+00  1.07875E+03  0.000E+00  4.000E+00  0.000E+00  1.000E+00
   1    8    5     9     2    0.0000E+00  0.0000E+00   0.0000E+00  0.000E+00  0.000E+00  0.000E+00  1.07825E+03  0.000E+00  4.000E+00  0.000E+00  1.000E+00





UNSATURATED ZONE PACKAGE VOLUMETRIC BUDGET FOR  TIME STEP    30 STRESS PERIOD   40
  ------------------------------------------------------------------------------



     CUMULATIVE VOLUMES      L**3       RATES FOR THIS TIME STEP      L**3/T
     ------------------                 ------------------------

           IN:                                      IN:
           ---                                      ---
        INFILTRATION =  1643329645.8245          INFILTRATION =           4.4075

          OUT:                                     OUT:
          ----                                     ----
              UZF ET =  1497515398.6832                UZF ET =           0.7250
        UZF RECHARGE =     1184216.5029          UZF RECHARGE =           0.0988

            IN - OUT =   144630030.6383              IN - OUT =           3.5837

          STORAGE:                                 STORAGE:
          --------                                 --------
      STORAGE CHANGE =   144630007.0902        STORAGE CHANGE =           3.5837

 PERCENT DISCREPANCY IS DIFFERENCE BETWEEN IN-OUT MINUS CHANGE IN STORAGE
 DIVIDED BY THE AVERAGE OF IN AND OUT TIMES 100

 PERCENT DISCREPANCY =           0.00     PERCENT DISCREPANCY =           0.00






1
  VOLUMETRIC BUDGET FOR AGRICULTURAL FIELDS AT  END OF TIME STEP   30, STRESS PERIOD  40
  ------------------------------------------------------------------------------

     CUMULATIVE VOLUMES      L**3       RATES FOR THIS TIME STEP      L**3/T
     ------------------                 ------------------------

           IN:                                      IN:
           ---                                      ---
               AG WELLS  =   593838720.0000                 AG WELLS  =           0.0000
      DIVERSION SEGMENTS =   597329216.0000        DIVERSION SEGMENTS =           0.0000
           GW IRRIGATION =           0.0000             GW IRRIGATION =           0.0000
           SW IRRIGATION =           0.0000             SW IRRIGATION =           0.0000
        SYSTEM LOSSES GW =           0.0000          SYSTEM LOSSES GW =           0.0000
        SYSTEM LOSSES SW =           0.0000          SYSTEM LOSSES SW =           0.0000

                TOTAL IN =  1191168000.0000                  TOTAL IN =           0.0000

          OUT:                                     OUT:
          ----                                     ----
               AG WELLS  =           0.0000                 AG WELLS  =           0.0000
      DIVERSION SEGMENTS =           0.0000        DIVERSION SEGMENTS =           0.0000
           GW IRRIGATION =   593838720.0000             GW IRRIGATION =           0.0000
           SW IRRIGATION =   597340736.0000             SW IRRIGATION =           0.0000
        SYSTEM LOSSES GW =           0.0000          SYSTEM LOSSES GW =           0.0000
        SYSTEM LOSSES SW =           0.0000          SYSTEM LOSSES SW =           0.0000

               TOTAL OUT =  1191179520.0000                 TOTAL OUT =           0.0000

                IN - OUT =      -11520.0000                  IN - OUT =           0.0000

     PERCENT DISCREPANCY =          -0.00         PERCENT DISCREPANCY =           0.00



1
  VOLUMETRIC BUDGET FOR ENTIRE MODEL AT END OF TIME STEP   30, STRESS PERIOD  40
  ------------------------------------------------------------------------------

     CUMULATIVE VOLUMES      L**3       RATES FOR THIS TIME STEP      L**3/T
     ------------------                 ------------------------

           IN:                                      IN:
           ---                                      ---
             STORAGE     =   889279808.0000               STORAGE     =           1.2360
       CONSTANT HEAD     =           0.0000         CONSTANT HEAD     =           0.0000
     HEAD DEP BOUNDS     =    29602602.0000       HEAD DEP BOUNDS     =           0.2893
      STREAM LEAKAGE     =  1213539840.0000        STREAM LEAKAGE     =          13.1445
        UZF RECHARGE     =     1184216.5000          UZF RECHARGE     =       9.8820E-02
               GW ET     =           0.0000                 GW ET     =           0.0000
     SURFACE LEAKAGE     =           0.0000       SURFACE LEAKAGE     =           0.0000
           AG WELLS      =           0.0000             AG WELLS      =           0.0000

                TOTAL IN =  2133606528.0000                  TOTAL IN =          14.7686

          OUT:                                     OUT:
          ----                                     ----
             STORAGE     =   476977600.0000               STORAGE     =           5.1576
       CONSTANT HEAD     =           0.0000         CONSTANT HEAD     =           0.0000
     HEAD DEP BOUNDS     =    29547036.0000       HEAD DEP BOUNDS     =           0.2906
      STREAM LEAKAGE     =  1033198016.0000        STREAM LEAKAGE     =           9.3214
        UZF RECHARGE     =           0.0000          UZF RECHARGE     =           0.0000
               GW ET     =           0.0000                 GW ET     =           0.0000
     SURFACE LEAKAGE     =           0.0000       SURFACE LEAKAGE     =           0.0000
           AG WELLS      =   593838720.0000             AG WELLS      =           0.0000

               TOTAL OUT =  2133561344.0000                 TOTAL OUT =          14.7696

                IN - OUT =       45184.0000                  IN - OUT =      -9.6035E-04

     PERCENT DISCREPANCY =           0.00         PERCENT DISCREPANCY =          -0.01






         TIME SUMMARY AT END OF TIME STEP   30 IN STRESS PERIOD   40
                    SECONDS     MINUTES      HOURS       DAYS        YEARS
                    -----------------------------------------------------------
   TIME STEP LENGTH  87667.      1461.1      24.352      1.0147     2.77799E-03
 STRESS PERIOD TIME 2.63000E+06  43833.      730.56      30.440     8.33397E-02
         TOTAL TIME 1.02656E+08 1.71093E+06  28515.      1188.1      3.2530    
1
1
                            STRESS PERIOD NO.   41, LENGTH =   2630000.    
                            -----------------------------------------------

                              NUMBER OF TIME STEPS =    30

                               MULTIPLIER FOR DELT =     1.000

                            INITIAL TIME STEP SIZE =   87666.66    

 REUSING NON-PARAMETER GHB CELLS FROM LAST STRESS PERIOD

      2 GHB CELLS

 REUSING STREAM SEGMENT DATA FROM LAST STRESS PERIOD



            AREAL INFILTRATION RATE
 READING ON UNIT   19 WITH FORMAT: (10F4.0)            

            1           2           3           4           5           6           7           8           9          10
 ........................................................................................................................
   1   1.2000E-09   0.000       0.000       0.000       0.000       0.000       0.000       0.000       0.000       0.000    
   2   2.1000E-09  2.0000E-09  8.0000E-10  8.5000E-09   0.000       0.000       0.000       0.000       0.000       0.000    
   3   5.0000E-10  1.1000E-09  8.8000E-09  5.5000E-09   0.000       0.000       0.000       0.000       0.000       0.000    
   4   8.5000E-09  1.1000E-09  1.1000E-09  1.1000E-09  2.0000E-09   0.000       0.000       0.000       0.000       0.000    
   5   8.5000E-09  1.1000E-09  1.1000E-09  1.1000E-09  1.1000E-09   0.000       0.000       0.000       0.000       0.000    
   6   8.5000E-09  5.2000E-09  2.1000E-09  1.1000E-09  1.5000E-09   0.000       0.000       0.000       0.000       0.000    
   7   8.5000E-09  5.2000E-09  2.1000E-09  1.2000E-09  2.0000E-09   0.000       0.000       0.000       0.000       0.000    
   8   5.0000E-10  5.2000E-09  2.1000E-09  1.2000E-09  5.0000E-09   0.000       0.000       0.000       0.000       0.000    
   9   5.0000E-10  5.2000E-09  2.1000E-09  1.2000E-09  5.0000E-09   0.000       0.000       0.000       0.000       0.000    
  10   5.0000E-10  5.2000E-09  2.1000E-09  1.2000E-09  5.8000E-09   0.000       0.000       0.000       0.000       0.000    
  11   1.0000E-10  1.1000E-09  1.1000E-09  1.2000E-09  5.0000E-09   0.000       0.000       0.000       0.000       0.000    
  12   1.1000E-09  1.1000E-09  1.1000E-09  1.1000E-09  2.0000E-09   0.000       0.000       0.000       0.000       0.000    
  13   1.1000E-09  2.2000E-09  2.2000E-09  2.1000E-09  1.0000E-09   0.000       0.000       0.000       0.000       0.000    
  14   2.0000E-10  5.5000E-09  5.5000E-09  5.2000E-09  1.0000E-09   0.000       0.000       0.000       0.000       0.000    
  15    0.000      8.8000E-09  8.8000E-09   0.000       0.000       0.000       0.000       0.000       0.000       0.000    

                  ET RATE =  2.500000E-08

 USING ET EXTINCTION DEPTH FROM PREVIOUS STRESS PERIOD. CURRENT PERIOD IS:      41

 USING EXTINCTION WATER CONTENT FROM PREVIOUS STRESS PERIOD. CURRENT PERIOD IS:      41

 USING AIR ENTRY PRESSURE FROM PREVIOUS STRESS PERIOD. CURRENT PERIOD IS:      41

 USING ROOT PRESSURE HEAD FROM PREVIOUS STRESS PERIOD. CURRENT PERIOD IS:      41

 USING ROOT ACTIVITY FROM PREVIOUS STRESS PERIOD. CURRENT PERIOD IS:      41

 PROCESSING AG STRESS PERIOD DATA

 READING AG STRESS PERIOD DATA

 READING IRRIGATION SEGMENT

 READING IRRIGATION WELL

 READING SUPPLEMENTAL WELL

 END PROCESSING AG STRESS PERIOD DATA OPTIONS
 
 SOLVING FOR HEAD 
                                                   Max.-Head-Change                         Max.-Flux-Residual
  Residual-Control   Outer-Iter.   Inner-Iter.     Column Row Layer    Maximum-Head-Change  Column Row Layer    Maximum-Flux-Residual          L2-NORM 
          0                 1           2             4    7     1       0.5582556311E-02       4    7    1         0.2918004197E+00      0.9115795571E+00
          0                 2           2             4    7     1      -0.5430309735E-03       4    7    1        -0.2918007385E-01      0.9121309721E-01
          0                 3           1             4    7     1       0.3697839254E-04       4    7    1         0.2042605749E-02      0.6409951970E-02

    ------------------------------------------------
       NWT REQUIRED            3 OUTER ITERATIONS 
       AND A TOTAL OF          5 INNER ITERATIONS.
    ------------------------------------------------

 NO OUTPUT CONTROL FOR STRESS PERIOD   41   TIME STEP    1
 
 SOLVING FOR HEAD 
                                                   Max.-Head-Change                         Max.-Flux-Residual
  Residual-Control   Outer-Iter.   Inner-Iter.     Column Row Layer    Maximum-Head-Change  Column Row Layer    Maximum-Flux-Residual          L2-NORM 
          0                 1           2             4    7     1       0.5549591957E-02       4    7    1         0.2900675335E+00      0.9070115130E+00
          0                 2           2             4    7     1      -0.5398244336E-03       4    7    1        -0.2900678474E-01      0.9074887942E-01
          0                 3           1             4    7     1       0.3676003896E-04       4    7    1         0.2030475518E-02      0.6373808092E-02

    ------------------------------------------------
       NWT REQUIRED            3 OUTER ITERATIONS 
       AND A TOTAL OF          5 INNER ITERATIONS.
    ------------------------------------------------

 NO OUTPUT CONTROL FOR STRESS PERIOD   41   TIME STEP    2
 
 SOLVING FOR HEAD 
                                                   Max.-Head-Change                         Max.-Flux-Residual
  Residual-Control   Outer-Iter.   Inner-Iter.     Column Row Layer    Maximum-Head-Change  Column Row Layer    Maximum-Flux-Residual          L2-NORM 
          0                 1           2             4    7     1       0.5516807254E-02       4    7    1         0.2883436881E+00      0.9025879487E+00
          0                 2           2             4    7     1      -0.5366353688E-03       4    7    1        -0.2883439973E-01      0.9029986257E-01
          0                 3           1             4    7     1       0.3654287573E-04       4    7    1         0.2018408564E-02      0.6339238012E-02

    ------------------------------------------------
       NWT REQUIRED            3 OUTER ITERATIONS 
       AND A TOTAL OF          5 INNER ITERATIONS.
    ------------------------------------------------

 NO OUTPUT CONTROL FOR STRESS PERIOD   41   TIME STEP    3
 
 SOLVING FOR HEAD 
                                                   Max.-Head-Change                         Max.-Flux-Residual
  Residual-Control   Outer-Iter.   Inner-Iter.     Column Row Layer    Maximum-Head-Change  Column Row Layer    Maximum-Flux-Residual          L2-NORM 
          0                 1           2             4    7     1       0.5484596397E-02       4    7    1         0.2866511794E+00      0.8939903478E+00
          0                 2           2             4    7     1      -0.5335021238E-03       4    7    1        -0.2866514838E-01      0.8940129767E-01
          0                 3           1             4    7     1       0.3632951312E-04       4    7    1         0.2006560968E-02      0.6259940083E-02

    ------------------------------------------------
       NWT REQUIRED            3 OUTER ITERATIONS 
       AND A TOTAL OF          5 INNER ITERATIONS.
    ------------------------------------------------

 NO OUTPUT CONTROL FOR STRESS PERIOD   41   TIME STEP    4
 
 SOLVING FOR HEAD 
                                                   Max.-Head-Change                         Max.-Flux-Residual
  Residual-Control   Outer-Iter.   Inner-Iter.     Column Row Layer    Maximum-Head-Change  Column Row Layer    Maximum-Flux-Residual          L2-NORM 
          0                 1           2             4    7     1       0.5452485018E-02       4    7    1         0.2849664015E+00      0.8959703778E+00
          0                 2           2             4    7     1      -0.5303785557E-03       4    7    1        -0.2849667014E-01      0.9149760183E-01
          0                 3           1             3   13     1      -0.4528175464E-04       3   13    1        -0.2622122481E-02      0.6836404660E-02

    ------------------------------------------------
       NWT REQUIRED            3 OUTER ITERATIONS 
       AND A TOTAL OF          5 INNER ITERATIONS.
    ------------------------------------------------

 NO OUTPUT CONTROL FOR STRESS PERIOD   41   TIME STEP    5
 
 SOLVING FOR HEAD 
                                                   Max.-Head-Change                         Max.-Flux-Residual
  Residual-Control   Outer-Iter.   Inner-Iter.     Column Row Layer    Maximum-Head-Change  Column Row Layer    Maximum-Flux-Residual          L2-NORM 
          0                 1           2             4    7     1       0.5420748625E-02       4    7    1         0.2833014620E+00      0.8867790597E+00
          0                 2           2             4    7     1      -0.5272914636E-03       4    7    1        -0.2833017576E-01      0.8980170360E-01
          0                 3           1             4    7     1       0.3590658993E-04       4    7    1         0.1983112867E-02      0.6572200574E-02

    ------------------------------------------------
       NWT REQUIRED            3 OUTER ITERATIONS 
       AND A TOTAL OF          5 INNER ITERATIONS.
    ------------------------------------------------

 NO OUTPUT CONTROL FOR STRESS PERIOD   41   TIME STEP    6
 
 SOLVING FOR HEAD 
                                                   Max.-Head-Change                         Max.-Flux-Residual
  Residual-Control   Outer-Iter.   Inner-Iter.     Column Row Layer    Maximum-Head-Change  Column Row Layer    Maximum-Flux-Residual          L2-NORM 
          0                 1           2             4    7     1       0.5389380339E-02       4    7    1         0.2816559652E+00      0.8785383564E+00
          0                 2           2             4    7     1      -0.5242401790E-03       4    7    1        -0.2816562567E-01      0.8787140958E-01
          0                 3           1             4   13     1      -0.3857505878E-04       4   13    1        -0.2249198475E-02      0.6465972174E-02

    ------------------------------------------------
       NWT REQUIRED            3 OUTER ITERATIONS 
       AND A TOTAL OF          5 INNER ITERATIONS.
    ------------------------------------------------

 NO OUTPUT CONTROL FOR STRESS PERIOD   41   TIME STEP    7
 
 SOLVING FOR HEAD 
                                                   Max.-Head-Change                         Max.-Flux-Residual
  Residual-Control   Outer-Iter.   Inner-Iter.     Column Row Layer    Maximum-Head-Change  Column Row Layer    Maximum-Flux-Residual          L2-NORM 
          0                 1           2             4    7     1       0.5358368880E-02       4    7    1         0.2800295543E+00      0.8702553005E+00
          0                 2           2             4    7     1      -0.5212236038E-03       4    7    1        -0.2800298418E-01      0.8646480782E-01
          0                 3           1             4    7     1       0.3549339248E-04       4    7    1         0.1960209487E-02      0.6258303611E-02

    ------------------------------------------------
       NWT REQUIRED            3 OUTER ITERATIONS 
       AND A TOTAL OF          5 INNER ITERATIONS.
    ------------------------------------------------

 NO OUTPUT CONTROL FOR STRESS PERIOD   41   TIME STEP    8
 
 SOLVING FOR HEAD 
                                                   Max.-Head-Change                         Max.-Flux-Residual
  Residual-Control   Outer-Iter.   Inner-Iter.     Column Row Layer    Maximum-Head-Change  Column Row Layer    Maximum-Flux-Residual          L2-NORM 
          0                 1           2             4    7     1       0.5327444931E-02       4    7    1         0.2784069621E+00      0.8632091885E+00
          0                 2           2             4    7     1      -0.5182155400E-03       4    7    1        -0.2784072455E-01      0.8581514243E-01
          0                 3           1             4    7     1       0.3528855378E-04       4    7    1         0.1948851275E-02      0.6165810746E-02

    ------------------------------------------------
       NWT REQUIRED            3 OUTER ITERATIONS 
       AND A TOTAL OF          5 INNER ITERATIONS.
    ------------------------------------------------

 NO OUTPUT CONTROL FOR STRESS PERIOD   41   TIME STEP    9
 
 SOLVING FOR HEAD 
                                                   Max.-Head-Change                         Max.-Flux-Residual
  Residual-Control   Outer-Iter.   Inner-Iter.     Column Row Layer    Maximum-Head-Change  Column Row Layer    Maximum-Flux-Residual          L2-NORM 
          0                 1           2             4    7     1       0.5297015417E-02       4    7    1         0.2768109308E+00      0.8565958752E+00
          0                 2           2             4    7     1      -0.5152555725E-03       4    7    1        -0.2768112103E-01      0.8531884826E-01
          0                 3           1             4    7     1       0.3508699134E-04       4    7    1         0.1937679045E-02      0.6094898622E-02

    ------------------------------------------------
       NWT REQUIRED            3 OUTER ITERATIONS 
       AND A TOTAL OF          5 INNER ITERATIONS.
    ------------------------------------------------

 NO OUTPUT CONTROL FOR STRESS PERIOD   41   TIME STEP   10
 
 SOLVING FOR HEAD 
                                                   Max.-Head-Change                         Max.-Flux-Residual
  Residual-Control   Outer-Iter.   Inner-Iter.     Column Row Layer    Maximum-Head-Change  Column Row Layer    Maximum-Flux-Residual          L2-NORM 
          0                 1           2             4    7     1       0.5266800959E-02       4    7    1         0.2752258528E+00      0.8503457537E+00
          0                 2           2             4    7     1      -0.5123165239E-03       4    7    1        -0.2752261283E-01      0.8475648968E-01
          0                 3           1             4    7     1       0.3488685320E-04       4    7    1         0.1926583484E-02      0.6027213923E-02

    ------------------------------------------------
       NWT REQUIRED            3 OUTER ITERATIONS 
       AND A TOTAL OF          5 INNER ITERATIONS.
    ------------------------------------------------

 NO OUTPUT CONTROL FOR STRESS PERIOD   41   TIME STEP   11
 
 SOLVING FOR HEAD 
                                                   Max.-Head-Change                         Max.-Flux-Residual
  Residual-Control   Outer-Iter.   Inner-Iter.     Column Row Layer    Maximum-Head-Change  Column Row Layer    Maximum-Flux-Residual          L2-NORM 
          0                 1           2             4    7     1       0.5236798619E-02       4    7    1         0.2736519251E+00      0.8450927759E+00
          0                 2           2             4    7     1      -0.5093981082E-03       4    7    1        -0.2736521966E-01      0.8460876914E-01
          0                 3           1             4    7     1       0.3468811984E-04       4    7    1         0.1915565945E-02      0.5993569367E-02

    ------------------------------------------------
       NWT REQUIRED            3 OUTER ITERATIONS 
       AND A TOTAL OF          5 INNER ITERATIONS.
    ------------------------------------------------

 NO OUTPUT CONTROL FOR STRESS PERIOD   41   TIME STEP   12
 
 SOLVING FOR HEAD 
                                                   Max.-Head-Change                         Max.-Flux-Residual
  Residual-Control   Outer-Iter.   Inner-Iter.     Column Row Layer    Maximum-Head-Change  Column Row Layer    Maximum-Flux-Residual          L2-NORM 
          0                 1           2             4    7     1       0.5207139616E-02       4    7    1         0.2720963369E+00      0.8398672936E+00
          0                 2           2             4    7     1      -0.5065130907E-03       4    7    1        -0.2720966049E-01      0.8399129970E-01
          0                 3           1             4    7     1       0.3449166055E-04       4    7    1         0.1904676809E-02      0.5922619937E-02

    ------------------------------------------------
       NWT REQUIRED            3 OUTER ITERATIONS 
       AND A TOTAL OF          5 INNER ITERATIONS.
    ------------------------------------------------

 NO OUTPUT CONTROL FOR STRESS PERIOD   41   TIME STEP   13
 
 SOLVING FOR HEAD 
                                                   Max.-Head-Change                         Max.-Flux-Residual
  Residual-Control   Outer-Iter.   Inner-Iter.     Column Row Layer    Maximum-Head-Change  Column Row Layer    Maximum-Flux-Residual          L2-NORM 
          0                 1           2             4    7     1       0.5177824787E-02       4    7    1         0.2705585502E+00      0.8362915707E+00
          0                 2           2             4    7     1      -0.5036615514E-03       4    7    1        -0.2705588144E-01      0.8363936426E-01
          0                 3           1             4    7     1       0.3429748149E-04       4    7    1         0.1893912260E-02      0.5889076294E-02

    ------------------------------------------------
       NWT REQUIRED            3 OUTER ITERATIONS 
       AND A TOTAL OF          5 INNER ITERATIONS.
    ------------------------------------------------

 NO OUTPUT CONTROL FOR STRESS PERIOD   41   TIME STEP   14
 
 SOLVING FOR HEAD 
                                                   Max.-Head-Change                         Max.-Flux-Residual
  Residual-Control   Outer-Iter.   Inner-Iter.     Column Row Layer    Maximum-Head-Change  Column Row Layer    Maximum-Flux-Residual          L2-NORM 
          0                 1           2             4    7     1       0.5148707630E-02       4    7    1         0.2690312671E+00      0.8314557233E+00
          0                 2           2             4    7     1      -0.5008292407E-03       4    7    1        -0.2690315275E-01      0.8315048580E-01
          0                 3           1             4    7     1       0.3410461183E-04       4    7    1         0.1883221259E-02      0.5847436937E-02

    ------------------------------------------------
       NWT REQUIRED            3 OUTER ITERATIONS 
       AND A TOTAL OF          5 INNER ITERATIONS.
    ------------------------------------------------

 NO OUTPUT CONTROL FOR STRESS PERIOD   41   TIME STEP   15
 
 SOLVING FOR HEAD 
                                                   Max.-Head-Change                         Max.-Flux-Residual
  Residual-Control   Outer-Iter.   Inner-Iter.     Column Row Layer    Maximum-Head-Change  Column Row Layer    Maximum-Flux-Residual          L2-NORM 
          0                 1           2             4    7     1       0.5119926052E-02       4    7    1         0.2675215746E+00      0.8269544621E+00
          0                 2           2             4    7     1      -0.4980295720E-03       4    7    1        -0.2675218313E-01      0.8269670978E-01
          0                 3           1             4    7     1       0.3391396465E-04       4    7    1         0.1872653374E-02      0.5809632421E-02

    ------------------------------------------------
       NWT REQUIRED            3 OUTER ITERATIONS 
       AND A TOTAL OF          5 INNER ITERATIONS.
    ------------------------------------------------

 NO OUTPUT CONTROL FOR STRESS PERIOD   41   TIME STEP   16
 
 SOLVING FOR HEAD 
                                                   Max.-Head-Change                         Max.-Flux-Residual
  Residual-Control   Outer-Iter.   Inner-Iter.     Column Row Layer    Maximum-Head-Change  Column Row Layer    Maximum-Flux-Residual          L2-NORM 
          0                 1           2             4    7     1       0.5091336685E-02       4    7    1         0.2660219396E+00      0.8227419944E+00
          0                 2           2             4    7     1      -0.4952486013E-03       4    7    1        -0.2660221928E-01      0.8227287967E-01
          0                 3           1             4    7     1       0.3372459100E-04       4    7    1         0.1862155911E-02      0.5775270991E-02

    ------------------------------------------------
       NWT REQUIRED            3 OUTER ITERATIONS 
       AND A TOTAL OF          5 INNER ITERATIONS.
    ------------------------------------------------

 NO OUTPUT CONTROL FOR STRESS PERIOD   41   TIME STEP   17
 
 SOLVING FOR HEAD 
                                                   Max.-Head-Change                         Max.-Flux-Residual
  Residual-Control   Outer-Iter.   Inner-Iter.     Column Row Layer    Maximum-Head-Change  Column Row Layer    Maximum-Flux-Residual          L2-NORM 
          0                 1           2             4    7     1       0.5063075319E-02       4    7    1         0.2645396124E+00      0.8187810710E+00
          0                 2           2             4    7     1      -0.4924995363E-03       4    7    1        -0.2645398624E-01      0.8187522148E-01
          0                 3           1             4    7     1       0.3353739002E-04       4    7    1         0.1851779608E-02      0.5743740333E-02

    ------------------------------------------------
       NWT REQUIRED            3 OUTER ITERATIONS 
       AND A TOTAL OF          5 INNER ITERATIONS.
    ------------------------------------------------

 NO OUTPUT CONTROL FOR STRESS PERIOD   41   TIME STEP   18
 
 SOLVING FOR HEAD 
                                                   Max.-Head-Change                         Max.-Flux-Residual
  Residual-Control   Outer-Iter.   Inner-Iter.     Column Row Layer    Maximum-Head-Change  Column Row Layer    Maximum-Flux-Residual          L2-NORM 
          0                 1           2             4    7     1       0.5035002608E-02       4    7    1         0.2630669496E+00      0.8150209302E+00
          0                 2           2             4    7     1      -0.4897688214E-03       4    7    1        -0.2630671960E-01      0.8149822792E-01
          0                 3           1             4    7     1       0.3335143831E-04       4    7    1         0.1841470928E-02      0.5714422582E-02

    ------------------------------------------------
       NWT REQUIRED            3 OUTER ITERATIONS 
       AND A TOTAL OF          5 INNER ITERATIONS.
    ------------------------------------------------

 NO OUTPUT CONTROL FOR STRESS PERIOD   41   TIME STEP   19
 
 SOLVING FOR HEAD 
                                                   Max.-Head-Change                         Max.-Flux-Residual
  Residual-Control   Outer-Iter.   Inner-Iter.     Column Row Layer    Maximum-Head-Change  Column Row Layer    Maximum-Flux-Residual          L2-NORM 
          0                 1           2             4    7     1       0.5007252459E-02       4    7    1         0.2616114104E+00      0.8114451615E+00
          0                 2           2             4    7     1      -0.4870694835E-03       4    7    1        -0.2616116535E-01      0.8114003766E-01
          0                 3           1             4    7     1       0.3316762329E-04       4    7    1         0.1831282117E-02      0.5687057040E-02

    ------------------------------------------------
       NWT REQUIRED            3 OUTER ITERATIONS 
       AND A TOTAL OF          5 INNER ITERATIONS.
    ------------------------------------------------

 NO OUTPUT CONTROL FOR STRESS PERIOD   41   TIME STEP   20
 
 SOLVING FOR HEAD 
                                                   Max.-Head-Change                         Max.-Flux-Residual
  Residual-Control   Outer-Iter.   Inner-Iter.     Column Row Layer    Maximum-Head-Change  Column Row Layer    Maximum-Flux-Residual          L2-NORM 
          0                 1           2             4    7     1       0.4979817136E-02       4    7    1         0.2601725957E+00      0.8080188052E+00
          0                 2           2             4    7     1      -0.4844007703E-03       4    7    1        -0.2601728355E-01      0.8079718459E-01
          0                 3           1             4    7     1       0.3298589419E-04       4    7    1         0.1821210411E-02      0.5661437333E-02

    ------------------------------------------------
       NWT REQUIRED            3 OUTER ITERATIONS 
       AND A TOTAL OF          5 INNER ITERATIONS.
    ------------------------------------------------

 NO OUTPUT CONTROL FOR STRESS PERIOD   41   TIME STEP   21
 
 SOLVING FOR HEAD 
                                                   Max.-Head-Change                         Max.-Flux-Residual
  Residual-Control   Outer-Iter.   Inner-Iter.     Column Row Layer    Maximum-Head-Change  Column Row Layer    Maximum-Flux-Residual          L2-NORM 
          0                 1           2             4    7     1       0.4952556617E-02       4    7    1         0.2587427621E+00      0.8047137358E+00
          0                 2           2             4    7     1      -0.4817490602E-03       4    7    1        -0.2587429988E-01      0.8046663298E-01
          0                 3           1             4    7     1       0.3280532243E-04       4    7    1         0.1811201545E-02      0.5636937449E-02

    ------------------------------------------------
       NWT REQUIRED            3 OUTER ITERATIONS 
       AND A TOTAL OF          5 INNER ITERATIONS.
    ------------------------------------------------

 NO OUTPUT CONTROL FOR STRESS PERIOD   41   TIME STEP   22
 
 SOLVING FOR HEAD 
                                                   Max.-Head-Change                         Max.-Flux-Residual
  Residual-Control   Outer-Iter.   Inner-Iter.     Column Row Layer    Maximum-Head-Change  Column Row Layer    Maximum-Flux-Residual          L2-NORM 
          0                 1           2             4    7     1       0.4925608629E-02       4    7    1         0.2573293341E+00      0.8015321379E+00
          0                 2           2             4    7     1      -0.4791277511E-03       4    7    1        -0.2573295676E-01      0.8014862297E-01
          0                 3           1             4    7     1       0.3262682108E-04       4    7    1         0.1801307518E-02      0.5613534939E-02

    ------------------------------------------------
       NWT REQUIRED            3 OUTER ITERATIONS 
       AND A TOTAL OF          5 INNER ITERATIONS.
    ------------------------------------------------

 NO OUTPUT CONTROL FOR STRESS PERIOD   41   TIME STEP   23
 
 SOLVING FOR HEAD 
                                                   Max.-Head-Change                         Max.-Flux-Residual
  Residual-Control   Outer-Iter.   Inner-Iter.     Column Row Layer    Maximum-Head-Change  Column Row Layer    Maximum-Flux-Residual          L2-NORM 
          0                 1           2             4    7     1       0.4898829219E-02       4    7    1         0.2559247681E+00      0.7984323893E+00
          0                 2           2             4    7     1      -0.4765228399E-03       4    7    1        -0.2559249983E-01      0.7983884396E-01
          0                 3           1             4    7     1       0.3244943624E-04       4    7    1         0.1791475536E-02      0.5591116653E-02

    ------------------------------------------------
       NWT REQUIRED            3 OUTER ITERATIONS 
       AND A TOTAL OF          5 INNER ITERATIONS.
    ------------------------------------------------

 NO OUTPUT CONTROL FOR STRESS PERIOD   41   TIME STEP   24
 
 SOLVING FOR HEAD 
                                                   Max.-Head-Change                         Max.-Flux-Residual
  Residual-Control   Outer-Iter.   Inner-Iter.     Column Row Layer    Maximum-Head-Change  Column Row Layer    Maximum-Flux-Residual          L2-NORM 
          0                 1           2             4    7     1       0.4872355548E-02       4    7    1         0.2545362850E+00      0.7955709940E+00
          0                 2           2             4    7     1      -0.4739476692E-03       4    7    1        -0.2545365122E-01      0.7954202564E-01
          0                 3           1             4    7     1       0.3227407673E-04       4    7    1         0.1781756144E-02      0.5568806716E-02

    ------------------------------------------------
       NWT REQUIRED            3 OUTER ITERATIONS 
       AND A TOTAL OF          5 INNER ITERATIONS.
    ------------------------------------------------

 NO OUTPUT CONTROL FOR STRESS PERIOD   41   TIME STEP   25
 
 SOLVING FOR HEAD 
                                                   Max.-Head-Change                         Max.-Flux-Residual
  Residual-Control   Outer-Iter.   Inner-Iter.     Column Row Layer    Maximum-Head-Change  Column Row Layer    Maximum-Flux-Residual          L2-NORM 
          0                 1           2             4    7     1       0.4846182655E-02       4    7    1         0.2531636542E+00      0.7927612985E+00
          0                 2           2             4    7     1      -0.4714017561E-03       4    7    1        -0.2531638783E-01      0.7925982198E-01
          0                 3           1             4    7     1       0.3210070965E-04       4    7    1         0.1772147713E-02      0.5549363774E-02

    ------------------------------------------------
       NWT REQUIRED            3 OUTER ITERATIONS 
       AND A TOTAL OF          5 INNER ITERATIONS.
    ------------------------------------------------

 NO OUTPUT CONTROL FOR STRESS PERIOD   41   TIME STEP   26
 
 SOLVING FOR HEAD 
                                                   Max.-Head-Change                         Max.-Flux-Residual
  Residual-Control   Outer-Iter.   Inner-Iter.     Column Row Layer    Maximum-Head-Change  Column Row Layer    Maximum-Flux-Residual          L2-NORM 
          0                 1           2             4    7     1       0.4820157496E-02       4    7    1         0.2517992758E+00      0.7896458759E+00
          0                 2           2             4    7     1      -0.4688702130E-03       4    7    1        -0.2517994969E-01      0.7891040651E-01
          0                 3           1             4    7     1       0.3192832086E-04       4    7    1         0.1762597023E-02      0.5528156642E-02

    ------------------------------------------------
       NWT REQUIRED            3 OUTER ITERATIONS 
       AND A TOTAL OF          5 INNER ITERATIONS.
    ------------------------------------------------

 NO OUTPUT CONTROL FOR STRESS PERIOD   41   TIME STEP   27
 
 SOLVING FOR HEAD 
                                                   Max.-Head-Change                         Max.-Flux-Residual
  Residual-Control   Outer-Iter.   Inner-Iter.     Column Row Layer    Maximum-Head-Change  Column Row Layer    Maximum-Flux-Residual          L2-NORM 
          0                 1           2             4    7     1       0.4794393121E-02       4    7    1         0.2504498995E+00      0.7994427645E+00
          0                 2           2             4    7     1      -0.4663640379E-03       4    7    1        -0.2504501180E-01      0.7893334090E-01
          0                 3           1             4    7     1       0.3175765955E-04       4    7    1         0.1753151363E-02      0.5517981619E-02

    ------------------------------------------------
       NWT REQUIRED            3 OUTER ITERATIONS 
       AND A TOTAL OF          5 INNER ITERATIONS.
    ------------------------------------------------

 NO OUTPUT CONTROL FOR STRESS PERIOD   41   TIME STEP   28
 
 SOLVING FOR HEAD 
                                                   Max.-Head-Change                         Max.-Flux-Residual
  Residual-Control   Outer-Iter.   Inner-Iter.     Column Row Layer    Maximum-Head-Change  Column Row Layer    Maximum-Flux-Residual          L2-NORM 
          0                 1           2             4    7     1       0.4768748345E-02       4    7    1         0.2491067016E+00      0.7940463311E+00
          0                 2           2             4    7     1      -0.4638694966E-03       4    7    1        -0.2491069172E-01      0.7926908436E-01
          0                 3           1             4    7     1       0.3158779086E-04       4    7    1         0.1743748981E-02      0.5536682386E-02

    ------------------------------------------------
       NWT REQUIRED            3 OUTER ITERATIONS 
       AND A TOTAL OF          5 INNER ITERATIONS.
    ------------------------------------------------

 NO OUTPUT CONTROL FOR STRESS PERIOD   41   TIME STEP   29
 
 SOLVING FOR HEAD 
                                                   Max.-Head-Change                         Max.-Flux-Residual
  Residual-Control   Outer-Iter.   Inner-Iter.     Column Row Layer    Maximum-Head-Change  Column Row Layer    Maximum-Flux-Residual          L2-NORM 
          0                 1           2             4    7     1       0.4743365914E-02       4    7    1         0.2477770474E+00      0.7877546815E+00
          0                 2           2             4    7     1      -0.4614004742E-03       4    7    1        -0.2477772605E-01      0.7865857658E-01
          0                 3           1             4    7     1       0.3141965935E-04       4    7    1         0.1734441365E-02      0.5495479817E-02

    ------------------------------------------------
       NWT REQUIRED            3 OUTER ITERATIONS 
       AND A TOTAL OF          5 INNER ITERATIONS.
    ------------------------------------------------

 NO OUTPUT CONTROL FOR STRESS PERIOD   41   TIME STEP   30



 STREAM LISTING     PERIOD     41   STEP       30

 LAYER ROW COL. STREAM  RCH.  FLOW INTO     FLOW TO   FLOW OUT OF   OVRLND.     DIRECT     STREAM       STREAM     STREAM     STREAM   STREAMBED  STREAMBED
                SEG.NO.  NO.  STRM. RCH.    AQUIFER    STRM. RCH.    RUNOFF     PRECIP       ET          HEAD       DEPTH      WIDTH   CONDCTNC.   GRADIENT

   1    1    1     1     1    2.3624E+01  2.3872E-01   2.3386E+01  0.000E+00  0.000E+00  0.000E+00  1.09421E+03  1.157E+00  1.276E+01  5.742E-02  1.386E+00
   1    2    2     1     2    2.3386E+01  3.6908E-01   2.3016E+01  0.000E+00  0.000E+00  0.000E+00  1.08921E+03  1.153E+00  1.270E+01  8.888E-02  1.384E+00
   1    3    3     1     3    2.3016E+01  3.1417E-01   2.2702E+01  0.000E+00  0.000E+00  0.000E+00  1.08357E+03  1.147E+00  1.263E+01  7.575E-02  1.382E+00
   1    3    4     1     4    2.2702E+01  2.8881E-01   2.2414E+01  0.000E+00  0.000E+00  0.000E+00  1.07855E+03  1.143E+00  1.256E+01  6.972E-02  1.381E+00
   1    4    5     2     1    2.0414E+01  3.1702E-01   2.0096E+01  0.000E+00  0.000E+00  0.000E+00  1.07300E+03  1.064E+00  1.200E+01  7.800E-02  1.355E+00
   1    5    6     2     2    2.0096E+01  2.4333E-01   1.9853E+01  0.000E+00  0.000E+00  0.000E+00  1.06756E+03  1.055E+00  1.200E+01  6.000E-02  1.352E+00
   1    6    6     2     3    1.9853E+01  2.4286E-01   1.9610E+01  0.000E+00  0.000E+00  0.000E+00  1.06284E+03  1.048E+00  1.200E+01  6.000E-02  1.349E+00
   1    7    6     2     4    1.9610E+01  2.4240E-01   1.9368E+01  0.000E+00  0.000E+00  0.000E+00  1.05812E+03  1.040E+00  1.200E+01  6.000E-02  1.347E+00
   1    8    6     2     5    1.9368E+01  2.4193E-01   1.9126E+01  0.000E+00  0.000E+00  0.000E+00  1.05339E+03  1.032E+00  1.200E+01  6.000E-02  1.344E+00
   1    3    5     3     1    2.0000E+00  2.8252E-01   1.7175E+00  0.000E+00  0.000E+00  0.000E+00  1.07555E+03  1.909E+00  9.636E+00  7.227E-02  1.955E+00
   1    3    6     3     2    1.7175E+00  2.4905E-01   1.4684E+00  0.000E+00  0.000E+00  0.000E+00  1.07264E+03  1.727E+00  8.909E+00  6.682E-02  1.864E+00
   1    3    7     3     3    1.4684E+00  1.9718E-01   1.2712E+00  0.000E+00  0.000E+00  0.000E+00  1.06987E+03  1.555E+00  8.218E+00  5.547E-02  1.777E+00
   1    4    8     3     4    1.2712E+00  2.2567E-01   1.0456E+00  0.000E+00  0.000E+00  0.000E+00  1.06682E+03  1.364E+00  7.455E+00  6.709E-02  1.682E+00
   1    5    8     3     5    1.0456E+00  1.5790E-01   8.8768E-01  0.000E+00  0.000E+00  0.000E+00  1.06362E+03  1.164E+00  6.655E+00  4.991E-02  1.582E+00
   1    6    8     3     6    8.8768E-01  5.5980E-02   8.3170E-01  0.000E+00  0.000E+00  0.000E+00  1.06158E+03  1.036E+00  6.145E+00  1.844E-02  1.518E+00
   1    5   10     4     1    1.0000E+01  9.0919E-02   9.9091E+00  0.000E+00  0.000E+00  0.000E+00  1.07836E+03  6.368E-01  1.000E+01  2.500E-02  1.212E+00
   1    5    9     4     2    9.9091E+00  1.8158E-01   9.7275E+00  0.000E+00  0.000E+00  0.000E+00  1.07154E+03  6.315E-01  1.000E+01  5.000E-02  1.211E+00
   1    6    8     4     3    9.7275E+00  1.2689E-01   9.6006E+00  0.000E+00  0.000E+00  0.000E+00  1.06381E+03  6.256E-01  1.000E+01  3.500E-02  1.209E+00
   1    6    8     5     1    1.0432E+01  2.2686E-01   1.0205E+01  0.000E+00  0.000E+00  0.000E+00  1.05868E+03  6.790E-01  1.542E+01  6.166E-02  1.226E+00
   1    7    7     5     2    1.0205E+01  2.7894E-01   9.9265E+00  0.000E+00  0.000E+00  0.000E+00  1.05417E+03  6.732E-01  1.519E+01  7.594E-02  1.224E+00
   1    8    7     5     3    9.9265E+00  1.9221E-01   9.7343E+00  0.000E+00  0.000E+00  0.000E+00  1.04992E+03  6.676E-01  1.497E+01  5.241E-02  1.223E+00
   1    8    6     5     4    9.7343E+00  1.3577E-01   9.5985E+00  0.000E+00  0.000E+00  0.000E+00  1.04691E+03  6.637E-01  1.482E+01  3.706E-02  1.221E+00
   1    9    6     6     1    2.8725E+01  2.5941E-01   2.8465E+01  0.000E+00  0.000E+00  0.000E+00  1.04405E+03  1.324E+00  1.200E+01  6.000E-02  1.441E+00
   1   10    7     6     2    2.8465E+01  2.5898E-01   2.8206E+01  0.000E+00  0.000E+00  0.000E+00  1.03950E+03  1.316E+00  1.200E+01  6.000E-02  1.439E+00
   1   11    7     6     3    2.8206E+01  2.5855E-01   2.7948E+01  0.000E+00  0.000E+00  0.000E+00  1.03495E+03  1.309E+00  1.200E+01  6.000E-02  1.436E+00
   1   12    7     6     4    2.7948E+01  2.5811E-01   2.7689E+01  0.000E+00  0.000E+00  0.000E+00  1.03039E+03  1.302E+00  1.200E+01  6.000E-02  1.434E+00
   1   13    7     6     5    2.7689E+01  1.3805E-02   2.7676E+01  0.000E+00  0.000E+00  0.000E+00  1.02721E+03  1.298E+00  1.200E+01  2.400E-02  1.917E-01
   1   14    9     7     1    1.5000E+02  1.3884E+00   1.4861E+02  0.000E+00  0.000E+00  0.000E+00  1.03987E+03  2.288E+00  5.529E+01  5.593E-01  8.275E-01
   1   13    8     7     2    1.4861E+02  1.9869E+00   1.4662E+02  0.000E+00  0.000E+00  0.000E+00  1.03478E+03  2.279E+00  5.525E+01  6.147E-01  1.077E+00
   1   13    7     7     3    1.4662E+02  1.7065E+00   1.4492E+02  0.000E+00  0.000E+00  0.000E+00  1.02969E+03  2.269E+00  5.521E+01  5.584E-01  1.019E+00
   1   13    6     8     1    1.7259E+02  1.1486E+00   1.7145E+02  0.000E+00  0.000E+00  0.000E+00  1.02484E+03  2.965E+00  4.300E+01  4.382E-01  8.738E-01
   1   13    5     8     2    1.7145E+02  3.6835E-01   1.7108E+02  0.000E+00  0.000E+00  0.000E+00  1.01859E+03  2.960E+00  4.293E+01  4.374E-01  2.807E-01
   1   13    4     8     3    1.7108E+02 -1.8830E+00   1.7296E+02  0.000E+00  0.000E+00  0.000E+00  1.01234E+03  2.965E+00  4.300E+01  4.382E+00 -1.433E-01
   1   13    3     8     4    1.7296E+02 -3.4075E+00   1.7637E+02  0.000E+00  0.000E+00  0.000E+00  1.00611E+03  2.982E+00  4.324E+01  4.407E+00 -2.577E-01
   1   13    2     8     5    1.7637E+02 -2.5727E+00   1.7894E+02  0.000E+00  0.000E+00  0.000E+00  9.99876E+02  3.001E+00  4.352E+01  4.435E+00 -1.934E-01
   1   13    1     8     6    1.7894E+02 -2.0088E+00   1.8095E+02  0.000E+00  0.000E+00  0.000E+00  9.94891E+02  3.016E+00  4.373E+01  2.674E+00 -2.504E-01
   1    8    6     9     1    0.0000E+00  0.0000E+00   0.0000E+00  0.000E+00  0.000E+00  0.000E+00  1.07875E+03  0.000E+00  4.000E+00  0.000E+00  1.000E+00
   1    8    5     9     2    0.0000E+00  0.0000E+00   0.0000E+00  0.000E+00  0.000E+00  0.000E+00  1.07825E+03  0.000E+00  4.000E+00  0.000E+00  1.000E+00





UNSATURATED ZONE PACKAGE VOLUMETRIC BUDGET FOR  TIME STEP    30 STRESS PERIOD   41
  ------------------------------------------------------------------------------



     CUMULATIVE VOLUMES      L**3       RATES FOR THIS TIME STEP      L**3/T
     ------------------                 ------------------------

           IN:                                      IN:
           ---                                      ---
        INFILTRATION =  1654921370.3826          INFILTRATION =           4.4075

          OUT:                                     OUT:
          ----                                     ----
              UZF ET =  1522929582.2870                UZF ET =           4.4075
        UZF RECHARGE =     1239720.7563          UZF RECHARGE =       0.0000E+00

            IN - OUT =   130752067.3393              IN - OUT =       0.0000E+00

          STORAGE:                                 STORAGE:
          --------                                 --------
      STORAGE CHANGE =   130752043.8164        STORAGE CHANGE =      -3.1123E-14

 PERCENT DISCREPANCY IS DIFFERENCE BETWEEN IN-OUT MINUS CHANGE IN STORAGE
 DIVIDED BY THE AVERAGE OF IN AND OUT TIMES 100

 PERCENT DISCREPANCY =           0.00     PERCENT DISCREPANCY =           0.00






1
  VOLUMETRIC BUDGET FOR AGRICULTURAL FIELDS AT  END OF TIME STEP   30, STRESS PERIOD  41
  ------------------------------------------------------------------------------

     CUMULATIVE VOLUMES      L**3       RATES FOR THIS TIME STEP      L**3/T
     ------------------                 ------------------------

           IN:                                      IN:
           ---                                      ---
               AG WELLS  =   593838720.0000                 AG WELLS  =           0.0000
      DIVERSION SEGMENTS =   597329216.0000        DIVERSION SEGMENTS =           0.0000
           GW IRRIGATION =           0.0000             GW IRRIGATION =           0.0000
           SW IRRIGATION =           0.0000             SW IRRIGATION =           0.0000
        SYSTEM LOSSES GW =           0.0000          SYSTEM LOSSES GW =           0.0000
        SYSTEM LOSSES SW =           0.0000          SYSTEM LOSSES SW =           0.0000

                TOTAL IN =  1191168000.0000                  TOTAL IN =           0.0000

          OUT:                                     OUT:
          ----                                     ----
               AG WELLS  =           0.0000                 AG WELLS  =           0.0000
      DIVERSION SEGMENTS =           0.0000        DIVERSION SEGMENTS =           0.0000
           GW IRRIGATION =   593838720.0000             GW IRRIGATION =           0.0000
           SW IRRIGATION =   597340736.0000             SW IRRIGATION =           0.0000
        SYSTEM LOSSES GW =           0.0000          SYSTEM LOSSES GW =           0.0000
        SYSTEM LOSSES SW =           0.0000          SYSTEM LOSSES SW =           0.0000

               TOTAL OUT =  1191179520.0000                 TOTAL OUT =           0.0000

                IN - OUT =      -11520.0000                  IN - OUT =           0.0000

     PERCENT DISCREPANCY =          -0.00         PERCENT DISCREPANCY =           0.00



1
  VOLUMETRIC BUDGET FOR ENTIRE MODEL AT END OF TIME STEP   30, STRESS PERIOD  41
  ------------------------------------------------------------------------------

     CUMULATIVE VOLUMES      L**3       RATES FOR THIS TIME STEP      L**3/T
     ------------------                 ------------------------

           IN:                                      IN:
           ---                                      ---
             STORAGE     =   892805312.0000               STORAGE     =           1.3911
       CONSTANT HEAD     =           0.0000         CONSTANT HEAD     =           0.0000
     HEAD DEP BOUNDS     =    30363490.0000       HEAD DEP BOUNDS     =           0.2893
      STREAM LEAKAGE     =  1247177344.0000        STREAM LEAKAGE     =          12.5473
        UZF RECHARGE     =     1239721.0000          UZF RECHARGE     =           0.0000
               GW ET     =           0.0000                 GW ET     =           0.0000
     SURFACE LEAKAGE     =           0.0000       SURFACE LEAKAGE     =           0.0000
           AG WELLS      =           0.0000             AG WELLS      =           0.0000

                TOTAL IN =  2171586048.0000                  TOTAL IN =          14.2278

          OUT:                                     OUT:
          ----                                     ----
             STORAGE     =   488654912.0000               STORAGE     =           4.0661
       CONSTANT HEAD     =           0.0000         CONSTANT HEAD     =           0.0000
     HEAD DEP BOUNDS     =    30311462.0000       HEAD DEP BOUNDS     =           0.2904
      STREAM LEAKAGE     =  1058738048.0000        STREAM LEAKAGE     =           9.8720
        UZF RECHARGE     =           0.0000          UZF RECHARGE     =           0.0000
               GW ET     =           0.0000                 GW ET     =           0.0000
     SURFACE LEAKAGE     =           0.0000       SURFACE LEAKAGE     =           0.0000
           AG WELLS      =   593838720.0000             AG WELLS      =           0.0000

               TOTAL OUT =  2171543040.0000                 TOTAL OUT =          14.2285

                IN - OUT =       43008.0000                  IN - OUT =      -7.6199E-04

     PERCENT DISCREPANCY =           0.00         PERCENT DISCREPANCY =          -0.01






         TIME SUMMARY AT END OF TIME STEP   30 IN STRESS PERIOD   41
                    SECONDS     MINUTES      HOURS       DAYS        YEARS
                    -----------------------------------------------------------
   TIME STEP LENGTH  87667.      1461.1      24.352      1.0147     2.77799E-03
 STRESS PERIOD TIME 2.63000E+06  43833.      730.56      30.440     8.33397E-02
         TOTAL TIME 1.05286E+08 1.75476E+06  29246.      1218.6      3.3363    
1
1
                            STRESS PERIOD NO.   42, LENGTH =   2630000.    
                            -----------------------------------------------

                              NUMBER OF TIME STEPS =    30

                               MULTIPLIER FOR DELT =     1.000

                            INITIAL TIME STEP SIZE =   87666.66    

 REUSING NON-PARAMETER GHB CELLS FROM LAST STRESS PERIOD

      2 GHB CELLS

 REUSING STREAM SEGMENT DATA FROM LAST STRESS PERIOD



            AREAL INFILTRATION RATE
 READING ON UNIT   19 WITH FORMAT: (10F4.0)            

            1           2           3           4           5           6           7           8           9          10
 ........................................................................................................................
   1   1.2000E-09   0.000       0.000       0.000       0.000       0.000       0.000       0.000       0.000       0.000    
   2   2.1000E-09  2.0000E-09  8.0000E-10  8.5000E-09   0.000       0.000       0.000       0.000       0.000       0.000    
   3   5.0000E-10  1.1000E-09  8.8000E-09  5.5000E-09   0.000       0.000       0.000       0.000       0.000       0.000    
   4   8.5000E-09  1.1000E-09  1.1000E-09  1.1000E-09  2.0000E-09   0.000       0.000       0.000       0.000       0.000    
   5   8.5000E-09  1.1000E-09  1.1000E-09  1.1000E-09  1.1000E-09   0.000       0.000       0.000       0.000       0.000    
   6   8.5000E-09  5.2000E-09  2.1000E-09  1.1000E-09  1.5000E-09   0.000       0.000       0.000       0.000       0.000    
   7   8.5000E-09  5.2000E-09  2.1000E-09  1.2000E-09  2.0000E-09   0.000       0.000       0.000       0.000       0.000    
   8   5.0000E-10  5.2000E-09  2.1000E-09  1.2000E-09  5.0000E-09   0.000       0.000       0.000       0.000       0.000    
   9   5.0000E-10  5.2000E-09  2.1000E-09  1.2000E-09  5.0000E-09   0.000       0.000       0.000       0.000       0.000    
  10   5.0000E-10  5.2000E-09  2.1000E-09  1.2000E-09  5.8000E-09   0.000       0.000       0.000       0.000       0.000    
  11   1.0000E-10  1.1000E-09  1.1000E-09  1.2000E-09  5.0000E-09   0.000       0.000       0.000       0.000       0.000    
  12   1.1000E-09  1.1000E-09  1.1000E-09  1.1000E-09  2.0000E-09   0.000       0.000       0.000       0.000       0.000    
  13   1.1000E-09  2.2000E-09  2.2000E-09  2.1000E-09  1.0000E-09   0.000       0.000       0.000       0.000       0.000    
  14   2.0000E-10  5.5000E-09  5.5000E-09  5.2000E-09  1.0000E-09   0.000       0.000       0.000       0.000       0.000    
  15    0.000      8.8000E-09  8.8000E-09   0.000       0.000       0.000       0.000       0.000       0.000       0.000    

                  ET RATE =  5.000000E-08

 USING ET EXTINCTION DEPTH FROM PREVIOUS STRESS PERIOD. CURRENT PERIOD IS:      42

 USING EXTINCTION WATER CONTENT FROM PREVIOUS STRESS PERIOD. CURRENT PERIOD IS:      42

 USING AIR ENTRY PRESSURE FROM PREVIOUS STRESS PERIOD. CURRENT PERIOD IS:      42

 USING ROOT PRESSURE HEAD FROM PREVIOUS STRESS PERIOD. CURRENT PERIOD IS:      42

 USING ROOT ACTIVITY FROM PREVIOUS STRESS PERIOD. CURRENT PERIOD IS:      42

 PROCESSING AG STRESS PERIOD DATA

 READING AG STRESS PERIOD DATA

 READING IRRIGATION SEGMENT

 READING IRRIGATION WELL

 READING SUPPLEMENTAL WELL

 END PROCESSING AG STRESS PERIOD DATA OPTIONS
 
 SOLVING FOR HEAD 
                                                   Max.-Head-Change                         Max.-Flux-Residual
  Residual-Control   Outer-Iter.   Inner-Iter.     Column Row Layer    Maximum-Head-Change  Column Row Layer    Maximum-Flux-Residual          L2-NORM 
          0                 1           2             4    7     1       0.4718239978E-02       4    7    1         0.2464609956E+00      0.7820450683E+00
          0                 2           2             4   13     1      -0.2779310866E-02       4   13    1        -0.1591492287E+00      0.2794068767E+00
          0                 3           2             4   13     1       0.2676839456E-03       4   13    1         0.1576100355E-01      0.2664399661E-01
          0                 4           1             4   13     1      -0.1805475863E-04       4   13    1        -0.1093090998E-02      0.1772878608E-02

    ------------------------------------------------
       NWT REQUIRED            4 OUTER ITERATIONS 
       AND A TOTAL OF          7 INNER ITERATIONS.
    ------------------------------------------------

 NO OUTPUT CONTROL FOR STRESS PERIOD   42   TIME STEP    1
 
 SOLVING FOR HEAD 
                                                   Max.-Head-Change                         Max.-Flux-Residual
  Residual-Control   Outer-Iter.   Inner-Iter.     Column Row Layer    Maximum-Head-Change  Column Row Layer    Maximum-Flux-Residual          L2-NORM 
          0                 1           2             4    7     1       0.4693245136E-02       4    7    1         0.2451514252E+00      0.7727813838E+00
          0                 2           2             4   13     1      -0.2715557157E-02       4   13    1        -0.1555182896E+00      0.2726578804E+00
          0                 3           2             4   13     1       0.2615487392E-03       4   13    1         0.1540156301E-01      0.2598218782E-01
          0                 4           1             4   13     1      -0.1756152230E-04       4   13    1        -0.1063283224E-02      0.1725785723E-02

    ------------------------------------------------
       NWT REQUIRED            4 OUTER ITERATIONS 
       AND A TOTAL OF          7 INNER ITERATIONS.
    ------------------------------------------------

 NO OUTPUT CONTROL FOR STRESS PERIOD   42   TIME STEP    2
 
 SOLVING FOR HEAD 
                                                   Max.-Head-Change                         Max.-Flux-Residual
  Residual-Control   Outer-Iter.   Inner-Iter.     Column Row Layer    Maximum-Head-Change  Column Row Layer    Maximum-Flux-Residual          L2-NORM 
          0                 1           2             4    7     1       0.4668505556E-02       4    7    1         0.2438554657E+00      0.7655833504E+00
          0                 2           2             4   13     1      -0.2766751230E-02       4   13    1        -0.1584609091E+00      0.2767182322E+00
          0                 3           2             4   13     1       0.2664754545E-03       4   13    1         0.1569270583E-01      0.2638488989E-01
          0                 4           1             4   13     1      -0.1789923033E-04       4   13    1        -0.1083803748E-02      0.1754993816E-02

    ------------------------------------------------
       NWT REQUIRED            4 OUTER ITERATIONS 
       AND A TOTAL OF          7 INNER ITERATIONS.
    ------------------------------------------------

 NO OUTPUT CONTROL FOR STRESS PERIOD   42   TIME STEP    3
 
 SOLVING FOR HEAD 
                                                   Max.-Head-Change                         Max.-Flux-Residual
  Residual-Control   Outer-Iter.   Inner-Iter.     Column Row Layer    Maximum-Head-Change  Column Row Layer    Maximum-Flux-Residual          L2-NORM 
          0                 1           2             4    7     1       0.4644019948E-02       4    7    1         0.2425727412E+00      0.7599039648E+00
          0                 2           2             4   13     1      -0.2810959857E-02       4   13    1        -0.1610017721E+00      0.2802511604E+00
          0                 3           2             4   13     1       0.2707295166E-03       4   13    1         0.1594403587E-01      0.2673593770E-01
          0                 4           1             4   13     1      -0.1818645181E-04       4   13    1        -0.1101243191E-02      0.1777772340E-02

    ------------------------------------------------
       NWT REQUIRED            4 OUTER ITERATIONS 
       AND A TOTAL OF          7 INNER ITERATIONS.
    ------------------------------------------------

 NO OUTPUT CONTROL FOR STRESS PERIOD   42   TIME STEP    4
 
 SOLVING FOR HEAD 
                                                   Max.-Head-Change                         Max.-Flux-Residual
  Residual-Control   Outer-Iter.   Inner-Iter.     Column Row Layer    Maximum-Head-Change  Column Row Layer    Maximum-Flux-Residual          L2-NORM 
          0                 1           2             4    7     1       0.4619647756E-02       4    7    1         0.2412958417E+00      0.7554537610E+00
          0                 2           2             4   13     1      -0.2849388454E-02       4   13    1        -0.1632101683E+00      0.2833481937E+00
          0                 3           2             4   13     1       0.2744247658E-03       4   13    1         0.1616232612E-01      0.2704566168E-01
          0                 4           1             4   13     1      -0.1842062261E-04       4   13    1        -0.1115489457E-02      0.1796613369E-02

    ------------------------------------------------
       NWT REQUIRED            4 OUTER ITERATIONS 
       AND A TOTAL OF          7 INNER ITERATIONS.
    ------------------------------------------------

 NO OUTPUT CONTROL FOR STRESS PERIOD   42   TIME STEP    5
 
 SOLVING FOR HEAD 
                                                   Max.-Head-Change                         Max.-Flux-Residual
  Residual-Control   Outer-Iter.   Inner-Iter.     Column Row Layer    Maximum-Head-Change  Column Row Layer    Maximum-Flux-Residual          L2-NORM 
          0                 1           2             4    7     1       0.4595528825E-02       4    7    1         0.2400321658E+00      0.7520130551E+00
          0                 2           2             4   13     1      -0.2538158180E-02       4   13    1        -0.1494832574E+00      0.2606928480E+00
          0                 3           2             2   13     1       0.2183170619E-03       2   13    1         0.1261246106E-01      0.2243516916E-01
          0                 4           1             2   13     1      -0.1404653170E-04       2   13    1        -0.8340486220E-03      0.1366064108E-02

    ------------------------------------------------
       NWT REQUIRED            4 OUTER ITERATIONS 
       AND A TOTAL OF          7 INNER ITERATIONS.
    ------------------------------------------------

 NO OUTPUT CONTROL FOR STRESS PERIOD   42   TIME STEP    6
 
 SOLVING FOR HEAD 
                                                   Max.-Head-Change                         Max.-Flux-Residual
  Residual-Control   Outer-Iter.   Inner-Iter.     Column Row Layer    Maximum-Head-Change  Column Row Layer    Maximum-Flux-Residual          L2-NORM 
          0                 1           2             4    7     1       0.4571521843E-02       4    7    1         0.2387742784E+00      0.7493305961E+00
          0                 2           2             4   13     1      -0.2844891474E-02       4   13    1        -0.1675304295E+00      0.2896885365E+00
          0                 3           2             2   13     1       0.2351466244E-03       2   13    1         0.1361875090E-01      0.2198294213E-01
          0                 4           1             2   13     1      -0.2133978258E-04       2   13    1        -0.1271747896E-02      0.1858067182E-02

    ------------------------------------------------
       NWT REQUIRED            4 OUTER ITERATIONS 
       AND A TOTAL OF          7 INNER ITERATIONS.
    ------------------------------------------------

 NO OUTPUT CONTROL FOR STRESS PERIOD   42   TIME STEP    7
 
 SOLVING FOR HEAD 
                                                   Max.-Head-Change                         Max.-Flux-Residual
  Residual-Control   Outer-Iter.   Inner-Iter.     Column Row Layer    Maximum-Head-Change  Column Row Layer    Maximum-Flux-Residual          L2-NORM 
          0                 1           2             4    7     1       0.4547765921E-02       4    7    1         0.2375295379E+00      0.7472694854E+00
          0                 2           2             4   13     1      -0.2613717938E-02       4   13    1        -0.1539397444E+00      0.2673253142E+00
          0                 3           1             2   13     1      -0.5388970623E-04       2   13    1        -0.3127073483E-02      0.7206873314E-02

    ------------------------------------------------
       NWT REQUIRED            3 OUTER ITERATIONS 
       AND A TOTAL OF          5 INNER ITERATIONS.
    ------------------------------------------------

 NO OUTPUT CONTROL FOR STRESS PERIOD   42   TIME STEP    8
 
 SOLVING FOR HEAD 
                                                   Max.-Head-Change                         Max.-Flux-Residual
  Residual-Control   Outer-Iter.   Inner-Iter.     Column Row Layer    Maximum-Head-Change  Column Row Layer    Maximum-Flux-Residual          L2-NORM 
          0                 1           2             4    7     1       0.4524247475E-02       4    7    1         0.2362973132E+00      0.7456994128E+00
          0                 2           2             4   13     1      -0.2605288121E-02       4   13    1        -0.1534486643E+00      0.2663062219E+00
          0                 3           1             2   13     1      -0.9400035110E-04       2   13    1        -0.5443981638E-02      0.1051791480E-01

    ------------------------------------------------
       NWT REQUIRED            3 OUTER ITERATIONS 
       AND A TOTAL OF          5 INNER ITERATIONS.
    ------------------------------------------------

 NO OUTPUT CONTROL FOR STRESS PERIOD   42   TIME STEP    9
 
 SOLVING FOR HEAD 
                                                   Max.-Head-Change                         Max.-Flux-Residual
  Residual-Control   Outer-Iter.   Inner-Iter.     Column Row Layer    Maximum-Head-Change  Column Row Layer    Maximum-Flux-Residual          L2-NORM 
          0                 1           2             4    7     1       0.4500836118E-02       4    7    1         0.2350705634E+00      0.7445137991E+00
          0                 2           2             4   13     1      -0.2582188959E-02       4   13    1        -0.1520937962E+00      0.2639338963E+00
          0                 3           2             4   13     1      -0.1360641172E-03       4   13    1        -0.8014263313E-02      0.1444022841E-01
          0                 4           1             4   13     1      -0.7634542782E-04       4   13    1        -0.4494564205E-02      0.7589227672E-02

    ------------------------------------------------
       NWT REQUIRED            4 OUTER ITERATIONS 
       AND A TOTAL OF          7 INNER ITERATIONS.
    ------------------------------------------------

 NO OUTPUT CONTROL FOR STRESS PERIOD   42   TIME STEP   10
 
 SOLVING FOR HEAD 
                                                   Max.-Head-Change                         Max.-Flux-Residual
  Residual-Control   Outer-Iter.   Inner-Iter.     Column Row Layer    Maximum-Head-Change  Column Row Layer    Maximum-Flux-Residual          L2-NORM 
          0                 1           2             4    7     1       0.4477679191E-02       4    7    1         0.2338572041E+00      0.7436946675E+00
          0                 2           2             4   13     1      -0.2551138371E-02       4   13    1        -0.1502706824E+00      0.2608272544E+00
          0                 3           2             4   13     1      -0.1762017623E-03       4   13    1        -0.1037701859E-01      0.1818923197E-01
          0                 4           1             4   13     1      -0.8189797383E-04       4   13    1        -0.4821605228E-02      0.8133212827E-02

    ------------------------------------------------
       NWT REQUIRED            4 OUTER ITERATIONS 
       AND A TOTAL OF          7 INNER ITERATIONS.
    ------------------------------------------------

 NO OUTPUT CONTROL FOR STRESS PERIOD   42   TIME STEP   11
 
 SOLVING FOR HEAD 
                                                   Max.-Head-Change                         Max.-Flux-Residual
  Residual-Control   Outer-Iter.   Inner-Iter.     Column Row Layer    Maximum-Head-Change  Column Row Layer    Maximum-Flux-Residual          L2-NORM 
          0                 1           2             4    7     1       0.4454763103E-02       4    7    1         0.2326565385E+00      0.7431063567E+00
          0                 2           2             4   13     1      -0.2567156149E-02       4   13    1        -0.1512156153E+00      0.2622369187E+00
          0                 3           2             4   13     1      -0.1718854213E-03       4   13    1        -0.1012278549E-01      0.1777898492E-01
          0                 4           1             4   13     1      -0.8560394463E-04       4   13    1        -0.5039782935E-02      0.8501790025E-02

    ------------------------------------------------
       NWT REQUIRED            4 OUTER ITERATIONS 
       AND A TOTAL OF          7 INNER ITERATIONS.
    ------------------------------------------------

 NO OUTPUT CONTROL FOR STRESS PERIOD   42   TIME STEP   12
 
 SOLVING FOR HEAD 
                                                   Max.-Head-Change                         Max.-Flux-Residual
  Residual-Control   Outer-Iter.   Inner-Iter.     Column Row Layer    Maximum-Head-Change  Column Row Layer    Maximum-Flux-Residual          L2-NORM 
          0                 1           2             4    7     1       0.4431951185E-02       4    7    1         0.2314610166E+00      0.7426787825E+00
          0                 2           2             4   13     1      -0.2581903202E-02       4   13    1        -0.1520851731E+00      0.2635568896E+00
          0                 3           2             4   13     1      -0.1673513481E-03       4   13    1        -0.9855763264E-02      0.1745160443E-01
          0                 4           1             4   13     1      -0.8928028266E-04       4   13    1        -0.5256210146E-02      0.8864160010E-02

    ------------------------------------------------
       NWT REQUIRED            4 OUTER ITERATIONS 
       AND A TOTAL OF          7 INNER ITERATIONS.
    ------------------------------------------------

 NO OUTPUT CONTROL FOR STRESS PERIOD   42   TIME STEP   13
 
 SOLVING FOR HEAD 
                                                   Max.-Head-Change                         Max.-Flux-Residual
  Residual-Control   Outer-Iter.   Inner-Iter.     Column Row Layer    Maximum-Head-Change  Column Row Layer    Maximum-Flux-Residual          L2-NORM 
          0                 1           2             4    7     1       0.4409381002E-02       4    7    1         0.2302782394E+00      0.7423668578E+00
          0                 2           2             4   13     1      -0.2595347888E-02       4   13    1        -0.1528775621E+00      0.2647790976E+00
          0                 3           2             4   13     1      -0.1625802001E-03       4   13    1        -0.9574831254E-02      0.1751158492E-01
          0                 4           1             4   13     1      -0.9288814233E-04       4   13    1        -0.5468595758E-02      0.9207030737E-02

    ------------------------------------------------
       NWT REQUIRED            4 OUTER ITERATIONS 
       AND A TOTAL OF          7 INNER ITERATIONS.
    ------------------------------------------------

 NO OUTPUT CONTROL FOR STRESS PERIOD   42   TIME STEP   14
 
 SOLVING FOR HEAD 
                                                   Max.-Head-Change                         Max.-Flux-Residual
  Residual-Control   Outer-Iter.   Inner-Iter.     Column Row Layer    Maximum-Head-Change  Column Row Layer    Maximum-Flux-Residual          L2-NORM 
          0                 1           2             4    7     1       0.4387044748E-02       4    7    1         0.2291079960E+00      0.7421184411E+00
          0                 2           2             4   13     1      -0.2607450347E-02       4   13    1        -0.1535905261E+00      0.2658942734E+00
          0                 3           2             4   13     1      -0.1578188350E-03       4   13    1        -0.9294504210E-02      0.1705678102E-01
          0                 4           1             4   13     1      -0.9645458562E-04       4   13    1        -0.5678536399E-02      0.9560804344E-02

    ------------------------------------------------
       NWT REQUIRED            4 OUTER ITERATIONS 
       AND A TOTAL OF          7 INNER ITERATIONS.
    ------------------------------------------------

 NO OUTPUT CONTROL FOR STRESS PERIOD   42   TIME STEP   15
 
 SOLVING FOR HEAD 
                                                   Max.-Head-Change                         Max.-Flux-Residual
  Residual-Control   Outer-Iter.   Inner-Iter.     Column Row Layer    Maximum-Head-Change  Column Row Layer    Maximum-Flux-Residual          L2-NORM 
          0                 1           2             4    7     1       0.4364805915E-02       4    7    1         0.2279425377E+00      0.7418972341E+00
          0                 2           2             4   13     1      -0.2618261286E-02       4   13    1        -0.1542271166E+00      0.2669046905E+00
          0                 3           2             4   13     1      -0.1528356752E-03       4   13    1        -0.9001143723E-02      0.1658177732E-01
          0                 4           1             4   13     1      -0.1003101719E-03       4   13    1        -0.5905498811E-02      0.9944361867E-02
          0                 5           1             4   13     1      -0.3003795364E-04       4   13    1        -0.1768667665E-02      0.2996135014E-02

    ------------------------------------------------
       NWT REQUIRED            5 OUTER ITERATIONS 
       AND A TOTAL OF          8 INNER ITERATIONS.
    ------------------------------------------------

 NO OUTPUT CONTROL FOR STRESS PERIOD   42   TIME STEP   16
 
 SOLVING FOR HEAD 
                                                   Max.-Head-Change                         Max.-Flux-Residual
  Residual-Control   Outer-Iter.   Inner-Iter.     Column Row Layer    Maximum-Head-Change  Column Row Layer    Maximum-Flux-Residual          L2-NORM 
          0                 1           2             4    7     1       0.4342799636E-02       4    7    1         0.2267894685E+00      0.7417435775E+00
          0                 2           2             4   13     1      -0.2630315998E-02       4   13    1        -0.1549366210E+00      0.2680401698E+00
          0                 3           2             4   13     1      -0.1498556424E-03       4   13    1        -0.8825737011E-02      0.1630044107E-01
          0                 4           1             4   13     1      -0.9991588365E-04       4   13    1        -0.5882291332E-02      0.9903387117E-02

    ------------------------------------------------
       NWT REQUIRED            4 OUTER ITERATIONS 
       AND A TOTAL OF          7 INNER ITERATIONS.
    ------------------------------------------------

 NO OUTPUT CONTROL FOR STRESS PERIOD   42   TIME STEP   17
 
 SOLVING FOR HEAD 
                                                   Max.-Head-Change                         Max.-Flux-Residual
  Residual-Control   Outer-Iter.   Inner-Iter.     Column Row Layer    Maximum-Head-Change  Column Row Layer    Maximum-Flux-Residual          L2-NORM 
          0                 1           2             4    7     1       0.4321026424E-02       4    7    1         0.2256484689E+00      0.7415227585E+00
          0                 2           2             4   13     1      -0.2637838630E-02       4   13    1        -0.1553790840E+00      0.2687707437E+00
          0                 3           2             4   13     1      -0.1517717217E-03       4   13    1        -0.8938705250E-02      0.1645779288E-01
          0                 4           1             4   13     1      -0.1004446424E-03       4   13    1        -0.5913304054E-02      0.9968382704E-02
          0                 5           1             4   13     1      -0.3006871388E-04       4   13    1        -0.1770472878E-02      0.3000386670E-02

    ------------------------------------------------
       NWT REQUIRED            5 OUTER ITERATIONS 
       AND A TOTAL OF          8 INNER ITERATIONS.
    ------------------------------------------------

 NO OUTPUT CONTROL FOR STRESS PERIOD   42   TIME STEP   18
 
 SOLVING FOR HEAD 
                                                   Max.-Head-Change                         Max.-Flux-Residual
  Residual-Control   Outer-Iter.   Inner-Iter.     Column Row Layer    Maximum-Head-Change  Column Row Layer    Maximum-Flux-Residual          L2-NORM 
          0                 1           2             4    7     1       0.4299344888E-02       4    7    1         0.2245121977E+00      0.7413361637E+00
          0                 2           2             4   13     1      -0.2647986441E-02       4   13    1        -0.1559758673E+00      0.2697514506E+00
          0                 3           2             4   13     1      -0.1491095015E-03       4   13    1        -0.8781933671E-02      0.1621102717E-01
          0                 4           1             4   13     1      -0.1000777042E-03       4   13    1        -0.5891795195E-02      0.9920799085E-02
          0                 5           1             4   13     1      -0.2980662146E-04       4   13    1        -0.1755036321E-02      0.2974713534E-02

    ------------------------------------------------
       NWT REQUIRED            5 OUTER ITERATIONS 
       AND A TOTAL OF          8 INNER ITERATIONS.
    ------------------------------------------------

 NO OUTPUT CONTROL FOR STRESS PERIOD   42   TIME STEP   19
 
 SOLVING FOR HEAD 
                                                   Max.-Head-Change                         Max.-Flux-Residual
  Residual-Control   Outer-Iter.   Inner-Iter.     Column Row Layer    Maximum-Head-Change  Column Row Layer    Maximum-Flux-Residual          L2-NORM 
          0                 1           2             4    7     1       0.4277890953E-02       4    7    1         0.2233880298E+00      0.7411087000E+00
          0                 2           2             4   13     1      -0.2651098646E-02       4   13    1        -0.1561585613E+00      0.2700676004E+00
          0                 3           2             4   13     1      -0.1514394547E-03       4   13    1        -0.8919212954E-02      0.1641846556E-01
          0                 4           1             4   13     1      -0.1005799479E-03       4   13    1        -0.5921335212E-02      0.9975280240E-02
          0                 5           1             4   13     1      -0.2996613746E-04       4   13    1        -0.1764428157E-02      0.2990650436E-02

    ------------------------------------------------
       NWT REQUIRED            5 OUTER ITERATIONS 
       AND A TOTAL OF          8 INNER ITERATIONS.
    ------------------------------------------------

 NO OUTPUT CONTROL FOR STRESS PERIOD   42   TIME STEP   20
 
 SOLVING FOR HEAD 
                                                   Max.-Head-Change                         Max.-Flux-Residual
  Residual-Control   Outer-Iter.   Inner-Iter.     Column Row Layer    Maximum-Head-Change  Column Row Layer    Maximum-Flux-Residual          L2-NORM 
          0                 1           2             4    7     1       0.4256663241E-02       4    7    1         0.2222756628E+00      0.7408385102E+00
          0                 2           2             4   13     1      -0.2657887962E-02       4   13    1        -0.1565573561E+00      0.2707428372E+00
          0                 3           2             4   13     1      -0.1505708172E-03       4   13    1        -0.8868137808E-02      0.1633159855E-01
          0                 4           1             4   13     1      -0.1004915549E-03       4   13    1        -0.5916149461E-02      0.9963343376E-02
          0                 5           1             4   13     1      -0.2986947046E-04       4   13    1        -0.1758738108E-02      0.2981324337E-02

    ------------------------------------------------
       NWT REQUIRED            5 OUTER ITERATIONS 
       AND A TOTAL OF          8 INNER ITERATIONS.
    ------------------------------------------------

 NO OUTPUT CONTROL FOR STRESS PERIOD   42   TIME STEP   21
 
 SOLVING FOR HEAD 
                                                   Max.-Head-Change                         Max.-Flux-Residual
  Residual-Control   Outer-Iter.   Inner-Iter.     Column Row Layer    Maximum-Head-Change  Column Row Layer    Maximum-Flux-Residual          L2-NORM 
          0                 1           2             4    7     1       0.4235657110E-02       4    7    1         0.2211750253E+00      0.7405158435E+00
          0                 2           2             4   13     1      -0.2663992541E-02       4   13    1        -0.1569157050E+00      0.2713586685E+00
          0                 3           2             4   13     1      -0.1499150671E-03       4   13    1        -0.8829629909E-02      0.1626109974E-01
          0                 4           1             4   13     1      -0.1003668872E-03       4   13    1        -0.5908793272E-02      0.9952334356E-02
          0                 5           1             4   13     1      -0.2977124455E-04       4   13    1        -0.1752939623E-02      0.2973204044E-02

    ------------------------------------------------
       NWT REQUIRED            5 OUTER ITERATIONS 
       AND A TOTAL OF          8 INNER ITERATIONS.
    ------------------------------------------------

 NO OUTPUT CONTROL FOR STRESS PERIOD   42   TIME STEP   22
 
 SOLVING FOR HEAD 
                                                   Max.-Head-Change                         Max.-Flux-Residual
  Residual-Control   Outer-Iter.   Inner-Iter.     Column Row Layer    Maximum-Head-Change  Column Row Layer    Maximum-Flux-Residual          L2-NORM 
          0                 1           2             4    7     1       0.4214734073E-02       4    7    1         0.2200785322E+00      0.7401299814E+00
          0                 2           2             4   13     1      -0.2669479517E-02       4   13    1        -0.1572375718E+00      0.2719200946E+00
          0                 3           2             4   13     1      -0.1493809486E-03       4   13    1        -0.8798316221E-02      0.1620116764E-01
          0                 4           1             4   13     1      -0.1002724936E-03       4   13    1        -0.5903217037E-02      0.9943111989E-02
          0                 5           1             4   13     1      -0.2973856117E-04       4   13    1        -0.1751035131E-02      0.2968354087E-02

    ------------------------------------------------
       NWT REQUIRED            5 OUTER ITERATIONS 
       AND A TOTAL OF          8 INNER ITERATIONS.
    ------------------------------------------------

 NO OUTPUT CONTROL FOR STRESS PERIOD   42   TIME STEP   23
 
 SOLVING FOR HEAD 
                                                   Max.-Head-Change                         Max.-Flux-Residual
  Residual-Control   Outer-Iter.   Inner-Iter.     Column Row Layer    Maximum-Head-Change  Column Row Layer    Maximum-Flux-Residual          L2-NORM 
          0                 1           2             4    7     1       0.4193893710E-02       4    7    1         0.2189863473E+00      0.7396846527E+00
          0                 2           2             4   13     1      -0.2674435570E-02       4   13    1        -0.1575281128E+00      0.2724326030E+00
          0                 3           2             4   13     1      -0.1489757449E-03       4   13    1        -0.8774573842E-02      0.1615363497E-01
          0                 4           1             4   13     1      -0.1001839152E-03       4   13    1        -0.5897993607E-02      0.9935732021E-02
          0                 5           1             4   13     1      -0.2970204076E-04       4   13    1        -0.1748893114E-02      0.2963656107E-02

    ------------------------------------------------
       NWT REQUIRED            5 OUTER ITERATIONS 
       AND A TOTAL OF          8 INNER ITERATIONS.
    ------------------------------------------------

 NO OUTPUT CONTROL FOR STRESS PERIOD   42   TIME STEP   24
 
 SOLVING FOR HEAD 
                                                   Max.-Head-Change                         Max.-Flux-Residual
  Residual-Control   Outer-Iter.   Inner-Iter.     Column Row Layer    Maximum-Head-Change  Column Row Layer    Maximum-Flux-Residual          L2-NORM 
          0                 1           2             4    7     1       0.4173412300E-02       4    7    1         0.2179131379E+00      0.7391926057E+00
          0                 2           2             4   13     1      -0.2678879344E-02       4   13    1        -0.1577884262E+00      0.2728982778E+00
          0                 3           2             4   13     1      -0.1486603703E-03       4   13    1        -0.8756137373E-02      0.1611416361E-01
          0                 4           1             4   13     1      -0.1001510997E-03       4   13    1        -0.5896047249E-02      0.9932935330E-02
          0                 5           1             4   13     1      -0.2964870526E-04       4   13    1        -0.1745748578E-02      0.2959106741E-02

    ------------------------------------------------
       NWT REQUIRED            5 OUTER ITERATIONS 
       AND A TOTAL OF          8 INNER ITERATIONS.
    ------------------------------------------------

 NO OUTPUT CONTROL FOR STRESS PERIOD   42   TIME STEP   25
 
 SOLVING FOR HEAD 
                                                   Max.-Head-Change                         Max.-Flux-Residual
  Residual-Control   Outer-Iter.   Inner-Iter.     Column Row Layer    Maximum-Head-Change  Column Row Layer    Maximum-Flux-Residual          L2-NORM 
          0                 1           2             4    7     1       0.4153009124E-02       4    7    1         0.2168438508E+00      0.7386364824E+00
          0                 2           2             4   13     1      -0.2682872545E-02       4   13    1        -0.1580221740E+00      0.2733210809E+00
          0                 3           2             4   13     1      -0.1484350061E-03       4   13    1        -0.8743003563E-02      0.1609538320E-01
          0                 4           1             4   13     1      -0.1001236818E-03       4   13    1        -0.5894501124E-02      0.9927006526E-02
          0                 5           1             4   13     1      -0.2962067797E-04       4   13    1        -0.1743997292E-02      0.2962241052E-02

    ------------------------------------------------
       NWT REQUIRED            5 OUTER ITERATIONS 
       AND A TOTAL OF          8 INNER ITERATIONS.
    ------------------------------------------------

 NO OUTPUT CONTROL FOR STRESS PERIOD   42   TIME STEP   26
 
 SOLVING FOR HEAD 
                                                   Max.-Head-Change                         Max.-Flux-Residual
  Residual-Control   Outer-Iter.   Inner-Iter.     Column Row Layer    Maximum-Head-Change  Column Row Layer    Maximum-Flux-Residual          L2-NORM 
          0                 1           2             4    7     1       0.4132821479E-02       4    7    1         0.2157859647E+00      0.7380255122E+00
          0                 2           2             4   13     1      -0.2686453454E-02       4   13    1        -0.1582315953E+00      0.2737057966E+00
          0                 3           2             4   13     1      -0.1482659644E-03       4   13    1        -0.8733181063E-02      0.1607044644E-01
          0                 4           1             4   13     1      -0.1001335634E-03       4   13    1        -0.5894990699E-02      0.9931958082E-02
          0                 5           1             4   13     1      -0.2960420740E-04       4   13    1        -0.1743125928E-02      0.2955939000E-02

    ------------------------------------------------
       NWT REQUIRED            5 OUTER ITERATIONS 
       AND A TOTAL OF          8 INNER ITERATIONS.
    ------------------------------------------------

 NO OUTPUT CONTROL FOR STRESS PERIOD   42   TIME STEP   27
 
 SOLVING FOR HEAD 
                                                   Max.-Head-Change                         Max.-Flux-Residual
  Residual-Control   Outer-Iter.   Inner-Iter.     Column Row Layer    Maximum-Head-Change  Column Row Layer    Maximum-Flux-Residual          L2-NORM 
          0                 1           2             4    7     1       0.4112842129E-02       4    7    1         0.2147392537E+00      0.7373614102E+00
          0                 2           2             4   13     1      -0.2689666664E-02       4   13    1        -0.1584193606E+00      0.2740548835E+00
          0                 3           2             4   13     1      -0.1481745641E-03       4   13    1        -0.8727917575E-02      0.1605435904E-01
          0                 4           1             4   13     1      -0.1001696211E-03       4   13    1        -0.5897106008E-02      0.9934587698E-02
          0                 5           1             4   13     1      -0.2959736894E-04       4   13    1        -0.1742727422E-02      0.2955068825E-02

    ------------------------------------------------
       NWT REQUIRED            5 OUTER ITERATIONS 
       AND A TOTAL OF          8 INNER ITERATIONS.
    ------------------------------------------------

 NO OUTPUT CONTROL FOR STRESS PERIOD   42   TIME STEP   28
 
 SOLVING FOR HEAD 
                                                   Max.-Head-Change                         Max.-Flux-Residual
  Residual-Control   Outer-Iter.   Inner-Iter.     Column Row Layer    Maximum-Head-Change  Column Row Layer    Maximum-Flux-Residual          L2-NORM 
          0                 1           2             4    7     1       0.4092938203E-02       4    7    1         0.2136959978E+00      0.7366442247E+00
          0                 2           2             4   13     1      -0.2692525163E-02       4   13    1        -0.1585862132E+00      0.2743687161E+00
          0                 3           2             4   13     1      -0.1481982996E-03       4   13    1        -0.8729466660E-02      0.1605017112E-01
          0                 4           1             4   13     1      -0.1001660666E-03       4   13    1        -0.5896875397E-02      0.9931403722E-02
          0                 5           1             4   13     1      -0.2959087705E-04       4   13    1        -0.1742335332E-02      0.2955634605E-02

    ------------------------------------------------
       NWT REQUIRED            5 OUTER ITERATIONS 
       AND A TOTAL OF          8 INNER ITERATIONS.
    ------------------------------------------------

 NO OUTPUT CONTROL FOR STRESS PERIOD   42   TIME STEP   29
 
 SOLVING FOR HEAD 
                                                   Max.-Head-Change                         Max.-Flux-Residual
  Residual-Control   Outer-Iter.   Inner-Iter.     Column Row Layer    Maximum-Head-Change  Column Row Layer    Maximum-Flux-Residual          L2-NORM 
          0                 1           2             4    7     1       0.4073245217E-02       4    7    1         0.2126639973E+00      0.7358798436E+00
          0                 2           2             4   13     1      -0.2695087380E-02       4   13    1        -0.1587356370E+00      0.2746529599E+00
          0                 3           2             4   13     1      -0.1482541954E-03       4   13    1        -0.8723985015E-02      0.1608589899E-01
          0                 4           1             4   13     1      -0.1002115315E-03       4   13    1        -0.5899814346E-02      0.9940675695E-02
          0                 5           1             4   13     1      -0.2978625534E-04       4   13    1        -0.1755258331E-02      0.2895190938E-02

    ------------------------------------------------
       NWT REQUIRED            5 OUTER ITERATIONS 
       AND A TOTAL OF          8 INNER ITERATIONS.
    ------------------------------------------------

 NO OUTPUT CONTROL FOR STRESS PERIOD   42   TIME STEP   30



 STREAM LISTING     PERIOD     42   STEP       30

 LAYER ROW COL. STREAM  RCH.  FLOW INTO     FLOW TO   FLOW OUT OF   OVRLND.     DIRECT     STREAM       STREAM     STREAM     STREAM   STREAMBED  STREAMBED
                SEG.NO.  NO.  STRM. RCH.    AQUIFER    STRM. RCH.    RUNOFF     PRECIP       ET          HEAD       DEPTH      WIDTH   CONDCTNC.   GRADIENT

   1    1    1     1     1    2.3624E+01  2.3872E-01   2.3386E+01  0.000E+00  0.000E+00  0.000E+00  1.09421E+03  1.157E+00  1.276E+01  5.742E-02  1.386E+00
   1    2    2     1     2    2.3386E+01  3.6908E-01   2.3016E+01  0.000E+00  0.000E+00  0.000E+00  1.08921E+03  1.153E+00  1.270E+01  8.888E-02  1.384E+00
   1    3    3     1     3    2.3016E+01  3.1417E-01   2.2702E+01  0.000E+00  0.000E+00  0.000E+00  1.08357E+03  1.147E+00  1.263E+01  7.575E-02  1.382E+00
   1    3    4     1     4    2.2702E+01  2.8881E-01   2.2414E+01  0.000E+00  0.000E+00  0.000E+00  1.07855E+03  1.143E+00  1.256E+01  6.972E-02  1.381E+00
   1    4    5     2     1    2.0414E+01  3.1702E-01   2.0096E+01  0.000E+00  0.000E+00  0.000E+00  1.07300E+03  1.064E+00  1.200E+01  7.800E-02  1.355E+00
   1    5    6     2     2    2.0096E+01  2.4333E-01   1.9853E+01  0.000E+00  0.000E+00  0.000E+00  1.06756E+03  1.055E+00  1.200E+01  6.000E-02  1.352E+00
   1    6    6     2     3    1.9853E+01  2.4286E-01   1.9610E+01  0.000E+00  0.000E+00  0.000E+00  1.06284E+03  1.048E+00  1.200E+01  6.000E-02  1.349E+00
   1    7    6     2     4    1.9610E+01  2.4240E-01   1.9368E+01  0.000E+00  0.000E+00  0.000E+00  1.05812E+03  1.040E+00  1.200E+01  6.000E-02  1.347E+00
   1    8    6     2     5    1.9368E+01  2.4193E-01   1.9126E+01  0.000E+00  0.000E+00  0.000E+00  1.05339E+03  1.032E+00  1.200E+01  6.000E-02  1.344E+00
   1    3    5     3     1    2.0000E+00  2.8252E-01   1.7175E+00  0.000E+00  0.000E+00  0.000E+00  1.07555E+03  1.909E+00  9.636E+00  7.227E-02  1.955E+00
   1    3    6     3     2    1.7175E+00  2.4905E-01   1.4684E+00  0.000E+00  0.000E+00  0.000E+00  1.07264E+03  1.727E+00  8.909E+00  6.682E-02  1.864E+00
   1    3    7     3     3    1.4684E+00  1.9718E-01   1.2712E+00  0.000E+00  0.000E+00  0.000E+00  1.06987E+03  1.555E+00  8.218E+00  5.547E-02  1.777E+00
   1    4    8     3     4    1.2712E+00  2.2567E-01   1.0456E+00  0.000E+00  0.000E+00  0.000E+00  1.06682E+03  1.364E+00  7.455E+00  6.709E-02  1.682E+00
   1    5    8     3     5    1.0456E+00  1.5790E-01   8.8768E-01  0.000E+00  0.000E+00  0.000E+00  1.06362E+03  1.164E+00  6.655E+00  4.991E-02  1.582E+00
   1    6    8     3     6    8.8768E-01  5.5980E-02   8.3170E-01  0.000E+00  0.000E+00  0.000E+00  1.06158E+03  1.036E+00  6.145E+00  1.844E-02  1.518E+00
   1    5   10     4     1    1.0000E+01  9.0919E-02   9.9091E+00  0.000E+00  0.000E+00  0.000E+00  1.07836E+03  6.368E-01  1.000E+01  2.500E-02  1.212E+00
   1    5    9     4     2    9.9091E+00  1.8158E-01   9.7275E+00  0.000E+00  0.000E+00  0.000E+00  1.07154E+03  6.315E-01  1.000E+01  5.000E-02  1.211E+00
   1    6    8     4     3    9.7275E+00  1.2689E-01   9.6006E+00  0.000E+00  0.000E+00  0.000E+00  1.06381E+03  6.256E-01  1.000E+01  3.500E-02  1.209E+00
   1    6    8     5     1    1.0432E+01  2.2686E-01   1.0205E+01  0.000E+00  0.000E+00  0.000E+00  1.05868E+03  6.790E-01  1.542E+01  6.166E-02  1.226E+00
   1    7    7     5     2    1.0205E+01  2.7894E-01   9.9265E+00  0.000E+00  0.000E+00  0.000E+00  1.05417E+03  6.732E-01  1.519E+01  7.594E-02  1.224E+00
   1    8    7     5     3    9.9265E+00  1.9221E-01   9.7343E+00  0.000E+00  0.000E+00  0.000E+00  1.04992E+03  6.676E-01  1.497E+01  5.241E-02  1.223E+00
   1    8    6     5     4    9.7343E+00  1.3577E-01   9.5985E+00  0.000E+00  0.000E+00  0.000E+00  1.04691E+03  6.637E-01  1.482E+01  3.706E-02  1.221E+00
   1    9    6     6     1    2.1445E+01  2.4668E-01   2.1199E+01  0.000E+00  0.000E+00  0.000E+00  1.04384E+03  1.111E+00  1.200E+01  6.000E-02  1.370E+00
   1   10    7     6     2    2.1199E+01  2.4621E-01   2.0952E+01  0.000E+00  0.000E+00  0.000E+00  1.03929E+03  1.104E+00  1.200E+01  6.000E-02  1.368E+00
   1   11    7     6     3    2.0952E+01  2.4575E-01   2.0707E+01  0.000E+00  0.000E+00  0.000E+00  1.03473E+03  1.096E+00  1.200E+01  6.000E-02  1.365E+00
   1   12    7     6     4    2.0707E+01  2.4529E-01   2.0461E+01  0.000E+00  0.000E+00  0.000E+00  1.03018E+03  1.088E+00  1.200E+01  6.000E-02  1.363E+00
   1   13    7     6     5    2.0461E+01  8.7948E-03   2.0453E+01  0.000E+00  0.000E+00  0.000E+00  1.02699E+03  1.084E+00  1.200E+01  2.400E-02  1.222E-01
   1   14    9     7     1    1.5000E+02  1.3893E+00   1.4861E+02  0.000E+00  0.000E+00  0.000E+00  1.03987E+03  2.288E+00  5.529E+01  5.593E-01  8.280E-01
   1   13    8     7     2    1.4861E+02  1.9882E+00   1.4662E+02  0.000E+00  0.000E+00  0.000E+00  1.03478E+03  2.279E+00  5.525E+01  6.147E-01  1.078E+00
   1   13    7     7     3    1.4662E+02  1.7094E+00   1.4491E+02  0.000E+00  0.000E+00  0.000E+00  1.02969E+03  2.269E+00  5.521E+01  5.584E-01  1.020E+00
   1   13    6     8     1    1.6537E+02  1.1181E+00   1.6425E+02  0.000E+00  0.000E+00  0.000E+00  1.02479E+03  2.918E+00  4.232E+01  4.312E-01  8.643E-01
   1   13    5     8     2    1.6425E+02  3.5070E-01   1.6390E+02  0.000E+00  0.000E+00  0.000E+00  1.01854E+03  2.913E+00  4.225E+01  4.305E-01  2.715E-01
   1   13    4     8     3    1.6390E+02 -1.8627E+00   1.6576E+02  0.000E+00  0.000E+00  0.000E+00  1.01229E+03  2.919E+00  4.232E+01  4.312E+00 -1.440E-01
   1   13    3     8     4    1.6576E+02 -3.3678E+00   1.6913E+02  0.000E+00  0.000E+00  0.000E+00  1.00606E+03  2.936E+00  4.257E+01  4.338E+00 -2.588E-01
   1   13    2     8     5    1.6913E+02 -2.5224E+00   1.7165E+02  0.000E+00  0.000E+00  0.000E+00  9.99830E+02  2.955E+00  4.285E+01  4.366E+00 -1.926E-01
   1   13    1     8     6    1.7165E+02 -1.9915E+00   1.7364E+02  0.000E+00  0.000E+00  0.000E+00  9.94845E+02  2.970E+00  4.306E+01  2.633E+00 -2.521E-01
   1    8    6     9     1    7.2792E+00  0.0000E+00   7.2792E+00  0.000E+00  0.000E+00  0.000E+00  1.08062E+03  1.866E+00  4.000E+00  0.000E+00  1.622E+00
   1    8    5     9     2    7.2792E+00  0.0000E+00   7.2792E+00  0.000E+00  0.000E+00  0.000E+00  1.08012E+03  1.866E+00  4.000E+00  0.000E+00  1.622E+00





UNSATURATED ZONE PACKAGE VOLUMETRIC BUDGET FOR  TIME STEP    30 STRESS PERIOD   42
  ------------------------------------------------------------------------------



     CUMULATIVE VOLUMES      L**3       RATES FOR THIS TIME STEP      L**3/T
     ------------------                 ------------------------

           IN:                                      IN:
           ---                                      ---
        INFILTRATION =  1685419345.6892          INFILTRATION =          11.6868

          OUT:                                     OUT:
          ----                                     ----
              UZF ET =  1553402368.9843                UZF ET =          11.5847
        UZF RECHARGE =     1239720.7563          UZF RECHARGE =       0.0000E+00

            IN - OUT =   130777255.9487              IN - OUT =           0.1022

          STORAGE:                                 STORAGE:
          --------                                 --------
      STORAGE CHANGE =   130777232.0898        STORAGE CHANGE =           0.1022

 PERCENT DISCREPANCY IS DIFFERENCE BETWEEN IN-OUT MINUS CHANGE IN STORAGE
 DIVIDED BY THE AVERAGE OF IN AND OUT TIMES 100

 PERCENT DISCREPANCY =           0.00     PERCENT DISCREPANCY =           0.00






1
  VOLUMETRIC BUDGET FOR AGRICULTURAL FIELDS AT  END OF TIME STEP   30, STRESS PERIOD  42
  ------------------------------------------------------------------------------

     CUMULATIVE VOLUMES      L**3       RATES FOR THIS TIME STEP      L**3/T
     ------------------                 ------------------------

           IN:                                      IN:
           ---                                      ---
               AG WELLS  =   593838720.0000                 AG WELLS  =           0.0000
      DIVERSION SEGMENTS =   616235008.0000        DIVERSION SEGMENTS =           7.2792
           GW IRRIGATION =           0.0000             GW IRRIGATION =           0.0000
           SW IRRIGATION =           0.0000             SW IRRIGATION =           0.0000
        SYSTEM LOSSES GW =           0.0000          SYSTEM LOSSES GW =           0.0000
        SYSTEM LOSSES SW =           0.0000          SYSTEM LOSSES SW =           0.0000

                TOTAL IN =  1210073728.0000                  TOTAL IN =           7.2792

          OUT:                                     OUT:
          ----                                     ----
               AG WELLS  =           0.0000                 AG WELLS  =           0.0000
      DIVERSION SEGMENTS =           0.0000        DIVERSION SEGMENTS =           0.0000
           GW IRRIGATION =   593838720.0000             GW IRRIGATION =           0.0000
           SW IRRIGATION =   616246976.0000             SW IRRIGATION =           7.2793
        SYSTEM LOSSES GW =           0.0000          SYSTEM LOSSES GW =           0.0000
        SYSTEM LOSSES SW =           0.0000          SYSTEM LOSSES SW =           0.0000

               TOTAL OUT =  1210085632.0000                 TOTAL OUT =           7.2793

                IN - OUT =      -11904.0000                  IN - OUT =      -1.4544E-04

     PERCENT DISCREPANCY =          -0.00         PERCENT DISCREPANCY =          -0.00



1
  VOLUMETRIC BUDGET FOR ENTIRE MODEL AT END OF TIME STEP   30, STRESS PERIOD  42
  ------------------------------------------------------------------------------

     CUMULATIVE VOLUMES      L**3       RATES FOR THIS TIME STEP      L**3/T
     ------------------                 ------------------------

           IN:                                      IN:
           ---                                      ---
             STORAGE     =   896534272.0000               STORAGE     =           1.1058
       CONSTANT HEAD     =           0.0000         CONSTANT HEAD     =           0.0000
     HEAD DEP BOUNDS     =    31124534.0000       HEAD DEP BOUNDS     =           0.2894
      STREAM LEAKAGE     =  1279895040.0000        STREAM LEAKAGE     =          12.4481
        UZF RECHARGE     =     1239721.0000          UZF RECHARGE     =           0.0000
               GW ET     =           0.0000                 GW ET     =           0.0000
     SURFACE LEAKAGE     =           0.0000       SURFACE LEAKAGE     =           0.0000
           AG WELLS      =           0.0000             AG WELLS      =           0.0000

                TOTAL IN =  2208793600.0000                  TOTAL IN =          13.8433

          OUT:                                     OUT:
          ----                                     ----
             STORAGE     =   498928288.0000               STORAGE     =           3.8097
       CONSTANT HEAD     =           0.0000         CONSTANT HEAD     =           0.0000
     HEAD DEP BOUNDS     =    31072684.0000       HEAD DEP BOUNDS     =           0.2888
      STREAM LEAKAGE     =  1084909312.0000        STREAM LEAKAGE     =           9.7443
        UZF RECHARGE     =           0.0000          UZF RECHARGE     =           0.0000
               GW ET     =           0.0000                 GW ET     =           0.0000
     SURFACE LEAKAGE     =           0.0000       SURFACE LEAKAGE     =           0.0000
           AG WELLS      =   593838720.0000             AG WELLS      =           0.0000

               TOTAL OUT =  2208749056.0000                 TOTAL OUT =          13.8428

                IN - OUT =       44544.0000                  IN - OUT =       4.7970E-04

     PERCENT DISCREPANCY =           0.00         PERCENT DISCREPANCY =           0.00






         TIME SUMMARY AT END OF TIME STEP   30 IN STRESS PERIOD   42
                    SECONDS     MINUTES      HOURS       DAYS        YEARS
                    -----------------------------------------------------------
   TIME STEP LENGTH  87667.      1461.1      24.352      1.0147     2.77799E-03
 STRESS PERIOD TIME 2.63000E+06  43833.      730.56      30.440     8.33397E-02
         TOTAL TIME 1.07916E+08 1.79859E+06  29977.      1249.0      3.4196    
1
1
                            STRESS PERIOD NO.   43, LENGTH =   2630000.    
                            -----------------------------------------------

                              NUMBER OF TIME STEPS =    30

                               MULTIPLIER FOR DELT =     1.000

                            INITIAL TIME STEP SIZE =   87666.66    

 REUSING NON-PARAMETER GHB CELLS FROM LAST STRESS PERIOD

      2 GHB CELLS

 REUSING STREAM SEGMENT DATA FROM LAST STRESS PERIOD



            AREAL INFILTRATION RATE
 READING ON UNIT   19 WITH FORMAT: (10F4.0)            

            1           2           3           4           5           6           7           8           9          10
 ........................................................................................................................
   1   1.2000E-09   0.000       0.000       0.000       0.000       0.000       0.000       0.000       0.000       0.000    
   2   2.1000E-09  2.0000E-09  8.0000E-10  8.5000E-09   0.000       0.000       0.000       0.000       0.000       0.000    
   3   5.0000E-10  1.1000E-09  8.8000E-09  5.5000E-09   0.000       0.000       0.000       0.000       0.000       0.000    
   4   8.5000E-09  1.1000E-09  1.1000E-09  1.1000E-09  2.0000E-09   0.000       0.000       0.000       0.000       0.000    
   5   8.5000E-09  1.1000E-09  1.1000E-09  1.1000E-09  1.1000E-09   0.000       0.000       0.000       0.000       0.000    
   6   8.5000E-09  5.2000E-09  2.1000E-09  1.1000E-09  1.5000E-09   0.000       0.000       0.000       0.000       0.000    
   7   8.5000E-09  5.2000E-09  2.1000E-09  1.2000E-09  2.0000E-09   0.000       0.000       0.000       0.000       0.000    
   8   5.0000E-10  5.2000E-09  2.1000E-09  1.2000E-09  5.0000E-09   0.000       0.000       0.000       0.000       0.000    
   9   5.0000E-10  5.2000E-09  2.1000E-09  1.2000E-09  5.0000E-09   0.000       0.000       0.000       0.000       0.000    
  10   5.0000E-10  5.2000E-09  2.1000E-09  1.2000E-09  5.8000E-09   0.000       0.000       0.000       0.000       0.000    
  11   1.0000E-10  1.1000E-09  1.1000E-09  1.2000E-09  5.0000E-09   0.000       0.000       0.000       0.000       0.000    
  12   1.1000E-09  1.1000E-09  1.1000E-09  1.1000E-09  2.0000E-09   0.000       0.000       0.000       0.000       0.000    
  13   1.1000E-09  2.2000E-09  2.2000E-09  2.1000E-09  1.0000E-09   0.000       0.000       0.000       0.000       0.000    
  14   2.0000E-10  5.5000E-09  5.5000E-09  5.2000E-09  1.0000E-09   0.000       0.000       0.000       0.000       0.000    
  15    0.000      8.8000E-09  8.8000E-09   0.000       0.000       0.000       0.000       0.000       0.000       0.000    

                  ET RATE =  1.500000E-07

 USING ET EXTINCTION DEPTH FROM PREVIOUS STRESS PERIOD. CURRENT PERIOD IS:      43

 USING EXTINCTION WATER CONTENT FROM PREVIOUS STRESS PERIOD. CURRENT PERIOD IS:      43

 USING AIR ENTRY PRESSURE FROM PREVIOUS STRESS PERIOD. CURRENT PERIOD IS:      43

 USING ROOT PRESSURE HEAD FROM PREVIOUS STRESS PERIOD. CURRENT PERIOD IS:      43

 USING ROOT ACTIVITY FROM PREVIOUS STRESS PERIOD. CURRENT PERIOD IS:      43

 PROCESSING AG STRESS PERIOD DATA

 READING AG STRESS PERIOD DATA

 READING IRRIGATION SEGMENT

 READING IRRIGATION WELL

 READING SUPPLEMENTAL WELL

 END PROCESSING AG STRESS PERIOD DATA OPTIONS
 
 SOLVING FOR HEAD 
                                                   Max.-Head-Change                         Max.-Flux-Residual
  Residual-Control   Outer-Iter.   Inner-Iter.     Column Row Layer    Maximum-Head-Change  Column Row Layer    Maximum-Flux-Residual          L2-NORM 
          0                 1           2             4    7     1       0.4053621409E-02       4    7    1         0.2116355888E+00      0.7339887558E+00
          0                 2           2             4   13     1      -0.7692099011E-02       4   13    1        -0.4520973810E+00      0.7643078818E+00
          0                 3           2             4   13     1       0.4237988984E-03       4   13    1         0.2560750263E-01      0.4356152736E-01
          0                 4           1             4   13     1      -0.6394547492E-04       4   13    1        -0.3970954783E-02      0.6597856964E-02

    ------------------------------------------------
       NWT REQUIRED            4 OUTER ITERATIONS 
       AND A TOTAL OF          7 INNER ITERATIONS.
    ------------------------------------------------

 NO OUTPUT CONTROL FOR STRESS PERIOD   43   TIME STEP    1
 
 SOLVING FOR HEAD 
                                                   Max.-Head-Change                         Max.-Flux-Residual
  Residual-Control   Outer-Iter.   Inner-Iter.     Column Row Layer    Maximum-Head-Change  Column Row Layer    Maximum-Flux-Residual          L2-NORM 
          0                 1           2             3    7     1       0.3815209651E-02       4    5    1         0.1418377915E+00      0.5652736544E+00
          0                 2           2             4    7     1      -0.7217095142E-02       4   13    1        -0.4184688850E+00      0.1165731368E+01
          0                 3           2             4    7     1      -0.1611022987E-02       5    6    1        -0.8455695567E-01      0.2123480028E+00
          0                 4           2             4    7     1      -0.6137347197E-03       4    7    1        -0.3206131717E-01      0.7850076523E-01
          0                 5           2             4    7     1      -0.3220264420E-03       5    6    1        -0.1682593621E-01      0.4121105625E-01
          0                 6           2             4    7     1      -0.1772112833E-03       4    7    1        -0.9257300880E-02      0.2267494662E-01
          0                 7           2             4    7     1      -0.1567874359E-03       5    7    1        -0.8190407323E-02      0.2006226183E-01
          0                 8           2             4    7     1      -0.1297481037E-03       4    7    1        -0.6777892548E-02      0.1660228761E-01
          0                 9           1             4    7     1      -0.1082138496E-03       4    7    1        -0.5652967850E-02      0.1384681782E-01
          0                10           1             4    7     1      -0.9017049580E-04       4    7    1        -0.4710403698E-02      0.1153802755E-01

    ------------------------------------------------
       NWT REQUIRED           10 OUTER ITERATIONS 
       AND A TOTAL OF         18 INNER ITERATIONS.
    ------------------------------------------------

 NO OUTPUT CONTROL FOR STRESS PERIOD   43   TIME STEP    2
 
 SOLVING FOR HEAD 
                                                   Max.-Head-Change                         Max.-Flux-Residual
  Residual-Control   Outer-Iter.   Inner-Iter.     Column Row Layer    Maximum-Head-Change  Column Row Layer    Maximum-Flux-Residual          L2-NORM 
          0                 1           2             3    7     1       0.3653104511E-02       4   13    1         0.1586940011E+00      0.5563061305E+00
          0                 2           2             4    8     1      -0.7310666328E-02       4   13    1        -0.4215532327E+00      0.1189529028E+01
          0                 3           2             4    7     1      -0.1840283729E-02       4    7    1        -0.9935760398E-01      0.2243422908E+00
          0                 4           2             4    7     1      -0.6464741974E-03       4    7    1        -0.3479924710E-01      0.8137030097E-01
          0                 5           2             4    7     1      -0.3398277798E-03       4    7    1        -0.1828839843E-01      0.4295551163E-01
          0                 6           2             4    7     1      -0.1674741923E-03       4    7    1        -0.9014509862E-02      0.2109305202E-01
          0                 7           2             4    7     1      -0.1131394128E-03       4    7    1        -0.6085830091E-02      0.1442791732E-01
          0                 8           1             4    7     1      -0.9613037006E-04       4    7    1        -0.5169493492E-02      0.1231989125E-01

    ------------------------------------------------
       NWT REQUIRED            8 OUTER ITERATIONS 
       AND A TOTAL OF         15 INNER ITERATIONS.
    ------------------------------------------------

 NO OUTPUT CONTROL FOR STRESS PERIOD   43   TIME STEP    3
 
 SOLVING FOR HEAD 
                                                   Max.-Head-Change                         Max.-Flux-Residual
  Residual-Control   Outer-Iter.   Inner-Iter.     Column Row Layer    Maximum-Head-Change  Column Row Layer    Maximum-Flux-Residual          L2-NORM 
          0                 1           2             3    7     1       0.3494422671E-02       4   13    1         0.1811478570E+00      0.5534657655E+00
          0                 2           2             5    7     1      -0.7519018891E-02       4   13    1        -0.4243503800E+00      0.1214300123E+01
          0                 3           2             4    7     1      -0.1907826204E-02       5    6    1        -0.1026948981E+00      0.2512745876E+00
          0                 4           2             4    7     1      -0.6640558603E-03       4    7    1        -0.3569194126E-01      0.8662044848E-01
          0                 5           2             4    7     1      -0.3512531429E-03       5    6    1        -0.1887764603E-01      0.4585351572E-01
          0                 6           2             4    7     1      -0.1737543183E-03       5    8    1        -0.9338677574E-02      0.2266574995E-01
          0                 7           1             4    7     1      -0.8674163619E-04       5    6    1        -0.4661911324E-02      0.1131760383E-01

    ------------------------------------------------
       NWT REQUIRED            7 OUTER ITERATIONS 
       AND A TOTAL OF         13 INNER ITERATIONS.
    ------------------------------------------------

 NO OUTPUT CONTROL FOR STRESS PERIOD   43   TIME STEP    4
 
 SOLVING FOR HEAD 
                                                   Max.-Head-Change                         Max.-Flux-Residual
  Residual-Control   Outer-Iter.   Inner-Iter.     Column Row Layer    Maximum-Head-Change  Column Row Layer    Maximum-Flux-Residual          L2-NORM 
          0                 1           2             4   13     1       0.3500989136E-02       4   13    1         0.2014792212E+00      0.5556082922E+00
          0                 2           2             4    7     1      -0.7519822047E-02       4   13    1        -0.4268855280E+00      0.1230978721E+01
          0                 3           2             4    7     1      -0.1947940034E-02       5    7    1        -0.1046333727E+00      0.2608478582E+00
          0                 4           2             4    7     1      -0.6812437111E-03       5    8    1        -0.3659073400E-01      0.8964180946E-01
          0                 5           2             4    7     1      -0.3608769627E-03       5    7    1        -0.1937999772E-01      0.4747023391E-01
          0                 6           2             4    7     1      -0.1789818787E-03       5    8    1        -0.9611660520E-02      0.2354356949E-01
          0                 7           1             4    7     1      -0.8957213286E-04       5    7    1        -0.4810130974E-02      0.1178233487E-01

    ------------------------------------------------
       NWT REQUIRED            7 OUTER ITERATIONS 
       AND A TOTAL OF         13 INNER ITERATIONS.
    ------------------------------------------------

 NO OUTPUT CONTROL FOR STRESS PERIOD   43   TIME STEP    5
 
 SOLVING FOR HEAD 
                                                   Max.-Head-Change                         Max.-Flux-Residual
  Residual-Control   Outer-Iter.   Inner-Iter.     Column Row Layer    Maximum-Head-Change  Column Row Layer    Maximum-Flux-Residual          L2-NORM 
          0                 1           2             4   13     1       0.3821219431E-02       4   13    1         0.2198959908E+00      0.5619996055E+00
          0                 2           2             4    7     1      -0.7537347678E-02       4   13    1        -0.4291866320E+00      0.1236511668E+01
          0                 3           2             4    7     1      -0.1949420064E-02       4    7    1        -0.1047000279E+00      0.2609344814E+00
          0                 4           2             4    7     1      -0.6883092489E-03       5    8    1        -0.3697739293E-01      0.9058134491E-01
          0                 5           2             4    7     1      -0.3641993662E-03       4    7    1        -0.1955822447E-01      0.4790658474E-01
          0                 6           2             4    7     1      -0.1806983076E-03       5    8    1        -0.9703867470E-02      0.2376941197E-01
          0                 7           1             4    7     1      -0.9044534065E-04       5    7    1        -0.4857020393E-02      0.1189719898E-01

    ------------------------------------------------
       NWT REQUIRED            7 OUTER ITERATIONS 
       AND A TOTAL OF         13 INNER ITERATIONS.
    ------------------------------------------------

 NO OUTPUT CONTROL FOR STRESS PERIOD   43   TIME STEP    6
 
 SOLVING FOR HEAD 
                                                   Max.-Head-Change                         Max.-Flux-Residual
  Residual-Control   Outer-Iter.   Inner-Iter.     Column Row Layer    Maximum-Head-Change  Column Row Layer    Maximum-Flux-Residual          L2-NORM 
          0                 1           2             4   13     1       0.4111553361E-02       4   13    1         0.2365866551E+00      0.5719475882E+00
          0                 2           2             4    7     1      -0.7546412121E-02       4   13    1        -0.4312749332E+00      0.1240864028E+01
          0                 3           2             4    7     1      -0.1947602233E-02       4    7    1        -0.1046042236E+00      0.2606041589E+00
          0                 4           2             4    7     1      -0.6944502754E-03       5    8    1        -0.3731376417E-01      0.9139847262E-01
          0                 5           2             4    7     1      -0.3667773853E-03       4    7    1        -0.1969667162E-01      0.4824502671E-01
          0                 6           2             4    7     1      -0.1820206802E-03       5    8    1        -0.9774909719E-02      0.2394339580E-01
          0                 7           1             4    7     1      -0.9110529408E-04       5    7    1        -0.4892457835E-02      0.1198400162E-01

    ------------------------------------------------
       NWT REQUIRED            7 OUTER ITERATIONS 
       AND A TOTAL OF         13 INNER ITERATIONS.
    ------------------------------------------------

 NO OUTPUT CONTROL FOR STRESS PERIOD   43   TIME STEP    7
 
 SOLVING FOR HEAD 
                                                   Max.-Head-Change                         Max.-Flux-Residual
  Residual-Control   Outer-Iter.   Inner-Iter.     Column Row Layer    Maximum-Head-Change  Column Row Layer    Maximum-Flux-Residual          L2-NORM 
          0                 1           2             4   13     1       0.4374863409E-02       4   13    1         0.2517175138E+00      0.5846405445E+00
          0                 2           2             4    7     1      -0.7555669898E-02       4   13    1        -0.4331710993E+00      0.1244947355E+01
          0                 3           2             4    7     1      -0.1945718719E-02       4    7    1        -0.1045047263E+00      0.2602733475E+00
          0                 4           2             4    7     1      -0.7004960192E-03       5    8    1        -0.3764442025E-01      0.9220223148E-01
          0                 5           2             4    7     1      -0.3693143548E-03       4    7    1        -0.1983291327E-01      0.4857812486E-01
          0                 6           2             4    7     1      -0.1833170721E-03       5    8    1        -0.9844553696E-02      0.2411395789E-01
          0                 7           1             4    7     1      -0.9174819989E-04       5    7    1        -0.4926979796E-02      0.1206856194E-01

    ------------------------------------------------
       NWT REQUIRED            7 OUTER ITERATIONS 
       AND A TOTAL OF         13 INNER ITERATIONS.
    ------------------------------------------------

 NO OUTPUT CONTROL FOR STRESS PERIOD   43   TIME STEP    8
 
 SOLVING FOR HEAD 
                                                   Max.-Head-Change                         Max.-Flux-Residual
  Residual-Control   Outer-Iter.   Inner-Iter.     Column Row Layer    Maximum-Head-Change  Column Row Layer    Maximum-Flux-Residual          L2-NORM 
          0                 1           2             4   13     1       0.4613818066E-02       4   13    1         0.2654429441E+00      0.5994183770E+00
          0                 2           2             4    7     1      -0.7565126409E-02       4   13    1        -0.4348954842E+00      0.1248849987E+01
          0                 3           2             4    7     1      -0.1943795779E-02       4    7    1        -0.1044029581E+00      0.2599464664E+00
          0                 4           2             4    7     1      -0.7064390916E-03       5    8    1        -0.3796900624E-01      0.9299176906E-01
          0                 5           2             4    7     1      -0.3718041322E-03       4    7    1        -0.1996674244E-01      0.4890511561E-01
          0                 6           2             4    7     1      -0.1845990120E-03       5    8    1        -0.9913418784E-02      0.2428263611E-01
          0                 7           1             4    7     1      -0.9238656910E-04       4    7    1        -0.4961261750E-02      0.1215253616E-01

    ------------------------------------------------
       NWT REQUIRED            7 OUTER ITERATIONS 
       AND A TOTAL OF         13 INNER ITERATIONS.
    ------------------------------------------------

 NO OUTPUT CONTROL FOR STRESS PERIOD   43   TIME STEP    9
 
 SOLVING FOR HEAD 
                                                   Max.-Head-Change                         Max.-Flux-Residual
  Residual-Control   Outer-Iter.   Inner-Iter.     Column Row Layer    Maximum-Head-Change  Column Row Layer    Maximum-Flux-Residual          L2-NORM 
          0                 1           2             4   13     1       0.4830672999E-02       4   13    1         0.2778935444E+00      0.6156715491E+00
          0                 2           2             4    7     1      -0.7574765396E-02       4   13    1        -0.4364617307E+00      0.1252517753E+01
          0                 3           2             4    7     1      -0.1941852585E-02       4    7    1        -0.1042988689E+00      0.2596302540E+00
          0                 4           2             4    7     1      -0.7123234100E-03       5    8    1        -0.3828965576E-01      0.9377158288E-01
          0                 5           2             4    7     1      -0.3742601682E-03       4    7    1        -0.2009848218E-01      0.4922737323E-01
          0                 6           2             4    7     1      -0.1858616123E-03       5    8    1        -0.9981167280E-02      0.2444857320E-01
          0                 7           1             4    7     1      -0.9302154632E-04       4    7    1        -0.4995320996E-02      0.1223596963E-01

    ------------------------------------------------
       NWT REQUIRED            7 OUTER ITERATIONS 
       AND A TOTAL OF         13 INNER ITERATIONS.
    ------------------------------------------------

 NO OUTPUT CONTROL FOR STRESS PERIOD   43   TIME STEP   10
 
 SOLVING FOR HEAD 
                                                   Max.-Head-Change                         Max.-Flux-Residual
  Residual-Control   Outer-Iter.   Inner-Iter.     Column Row Layer    Maximum-Head-Change  Column Row Layer    Maximum-Flux-Residual          L2-NORM 
          0                 1           2             4   13     1       0.5027616621E-02       4   13    1         0.2891959357E+00      0.6329462402E+00
          0                 2           2             4    7     1      -0.7584624327E-02       4   13    1        -0.4378863838E+00      0.1255985821E+01
          0                 3           2             4    7     1      -0.1939858840E-02       4    7    1        -0.1041933046E+00      0.2593002571E+00
          0                 4           2             4    7     1      -0.7181172187E-03       5    8    1        -0.3860521809E-01      0.9454074740E-01
          0                 5           2             4    7     1      -0.3766838408E-03       4    7    1        -0.2022863703E-01      0.4954567175E-01
          0                 6           2             4    7     1      -0.1871004689E-03       5    8    1        -0.1004771313E-01      0.2461155804E-01
          0                 7           1             4    7     1      -0.9363963151E-04       4    7    1        -0.5028510634E-02      0.1231726705E-01

    ------------------------------------------------
       NWT REQUIRED            7 OUTER ITERATIONS 
       AND A TOTAL OF         13 INNER ITERATIONS.
    ------------------------------------------------

 NO OUTPUT CONTROL FOR STRESS PERIOD   43   TIME STEP   11
 
 SOLVING FOR HEAD 
                                                   Max.-Head-Change                         Max.-Flux-Residual
  Residual-Control   Outer-Iter.   Inner-Iter.     Column Row Layer    Maximum-Head-Change  Column Row Layer    Maximum-Flux-Residual          L2-NORM 
          0                 1           2             4   13     1       0.5206689774E-02       4   13    1         0.2994679019E+00      0.6508626947E+00
          0                 2           2             4    6     1      -0.7599022719E-02       4   13    1        -0.4391843628E+00      0.1259266568E+01
          0                 3           2             4    7     1      -0.1937853902E-02       4    7    1        -0.1040866956E+00      0.2589841646E+00
          0                 4           2             4    7     1      -0.7238219147E-03       5    8    1        -0.3891557895E-01      0.9529685840E-01
          0                 5           2             4    7     1      -0.3790671399E-03       4    7    1        -0.2035662144E-01      0.4985874257E-01
          0                 6           2             4    7     1      -0.1883310556E-03       5    8    1        -0.1011381274E-01      0.2477344915E-01
          0                 7           1             4    7     1      -0.9424608763E-04       4    7    1        -0.5061075723E-02      0.1239703120E-01

    ------------------------------------------------
       NWT REQUIRED            7 OUTER ITERATIONS 
       AND A TOTAL OF         13 INNER ITERATIONS.
    ------------------------------------------------

 NO OUTPUT CONTROL FOR STRESS PERIOD   43   TIME STEP   12
 
 SOLVING FOR HEAD 
                                                   Max.-Head-Change                         Max.-Flux-Residual
  Residual-Control   Outer-Iter.   Inner-Iter.     Column Row Layer    Maximum-Head-Change  Column Row Layer    Maximum-Flux-Residual          L2-NORM 
          0                 1           2             4   13     1       0.5369340612E-02       4   13    1         0.3087934728E+00      0.6691592198E+00
          0                 2           2             4    6     1      -0.7616708734E-02       4   13    1        -0.4403641838E+00      0.1262379849E+01
          0                 3           2             4    7     1      -0.1935839930E-02       4    7    1        -0.1039794863E+00      0.2586727518E+00
          0                 4           2             4    7     1      -0.7294384568E-03       5    8    1        -0.3922079762E-01      0.9604084018E-01
          0                 5           2             4    7     1      -0.3814155476E-03       4    7    1        -0.2048273139E-01      0.5016726265E-01
          0                 6           2             4    7     1      -0.1895341188E-03       5    8    1        -0.1017843224E-01      0.2493171633E-01
          0                 7           1             4    7     1      -0.9485336234E-04       4    7    1        -0.5093684730E-02      0.1247690411E-01

    ------------------------------------------------
       NWT REQUIRED            7 OUTER ITERATIONS 
       AND A TOTAL OF         13 INNER ITERATIONS.
    ------------------------------------------------

 NO OUTPUT CONTROL FOR STRESS PERIOD   43   TIME STEP   13
 
 SOLVING FOR HEAD 
                                                   Max.-Head-Change                         Max.-Flux-Residual
  Residual-Control   Outer-Iter.   Inner-Iter.     Column Row Layer    Maximum-Head-Change  Column Row Layer    Maximum-Flux-Residual          L2-NORM 
          0                 1           2             4   13     1       0.5517435812E-02       4   13    1         0.3172804693E+00      0.6821658615E+00
          0                 2           2             4    6     1      -0.7562383140E-02       4   13    1        -0.4414409741E+00      0.1257707613E+01
          0                 3           2             4    7     1      -0.1918167031E-02       4    7    1        -0.1030312429E+00      0.2563083294E+00
          0                 4           2             4    7     1      -0.7309902019E-03       5    8    1        -0.3930736311E-01      0.9624891635E-01
          0                 5           2             4    7     1      -0.3814602375E-03       4    7    1        -0.2048512734E-01      0.5017278166E-01
          0                 6           2             4    7     1      -0.1896143214E-03       5    8    1        -0.1018275102E-01      0.2494227970E-01
          0                 7           1             4    7     1      -0.9487775693E-04       4    7    1        -0.5094992707E-02      0.1248010623E-01

    ------------------------------------------------
       NWT REQUIRED            7 OUTER ITERATIONS 
       AND A TOTAL OF         13 INNER ITERATIONS.
    ------------------------------------------------

 NO OUTPUT CONTROL FOR STRESS PERIOD   43   TIME STEP   14
 
 SOLVING FOR HEAD 
                                                   Max.-Head-Change                         Max.-Flux-Residual
  Residual-Control   Outer-Iter.   Inner-Iter.     Column Row Layer    Maximum-Head-Change  Column Row Layer    Maximum-Flux-Residual          L2-NORM 
          0                 1           2             4   13     1       0.5652126135E-02       4   13    1         0.3249952144E+00      0.7018650532E+00
          0                 2           2             4    6     1      -0.7598211621E-02       4   13    1        -0.4424233665E+00      0.1262590792E+01
          0                 3           2             4    7     1      -0.1920384394E-02       4    7    1        -0.1031510573E+00      0.2565535867E+00
          0                 4           2             4    7     1      -0.7376013427E-03       5    8    1        -0.3966527778E-01      0.9712272204E-01
          0                 5           2             4    7     1      -0.3843838724E-03       4    7    1        -0.2064212669E-01      0.5055703735E-01
          0                 6           2             4    7     1      -0.1910956545E-03       5    8    1        -0.1026231029E-01      0.2513714569E-01
          0                 7           1             4    7     1      -0.9562648416E-04       4    7    1        -0.5135197753E-02      0.1257858720E-01

    ------------------------------------------------
       NWT REQUIRED            7 OUTER ITERATIONS 
       AND A TOTAL OF         13 INNER ITERATIONS.
    ------------------------------------------------

 NO OUTPUT CONTROL FOR STRESS PERIOD   43   TIME STEP   15
 
 SOLVING FOR HEAD 
                                                   Max.-Head-Change                         Max.-Flux-Residual
  Residual-Control   Outer-Iter.   Inner-Iter.     Column Row Layer    Maximum-Head-Change  Column Row Layer    Maximum-Flux-Residual          L2-NORM 
          0                 1           2             4   13     1       0.5774766672E-02       4   13    1         0.3320162600E+00      0.7214936159E+00
          0                 2           2             4    6     1      -0.7632013172E-02       4   13    1        -0.4433182486E+00      0.1267184715E+01
          0                 3           2             4    7     1      -0.1922283307E-02       4    7    1        -0.1032536751E+00      0.2567625939E+00
          0                 4           2             4    7     1      -0.7440383300E-03       5    8    1        -0.4001352735E-01      0.9797319835E-01
          0                 5           2             4    7     1      -0.3872131522E-03       4    7    1        -0.2079405841E-01      0.5092891292E-01
          0                 6           2             4    7     1      -0.1925436389E-03       5    8    1        -0.1034007711E-01      0.2532762268E-01
          0                 7           1             4    7     1      -0.9634202973E-04       4    7    1        -0.5173620887E-02      0.1267270230E-01

    ------------------------------------------------
       NWT REQUIRED            7 OUTER ITERATIONS 
       AND A TOTAL OF         13 INNER ITERATIONS.
    ------------------------------------------------

 NO OUTPUT CONTROL FOR STRESS PERIOD   43   TIME STEP   16
 
 SOLVING FOR HEAD 
                                                   Max.-Head-Change                         Max.-Flux-Residual
  Residual-Control   Outer-Iter.   Inner-Iter.     Column Row Layer    Maximum-Head-Change  Column Row Layer    Maximum-Flux-Residual          L2-NORM 
          0                 1           2             4   13     1       0.5886527682E-02       4   13    1         0.3384111214E+00      0.7409316912E+00
          0                 2           2             5    8     1      -0.7664851832E-02       4   13    1        -0.4441352890E+00      0.1271510444E+01
          0                 3           2             4    7     1      -0.1923892901E-02       4    7    1        -0.1033406689E+00      0.2569384593E+00
          0                 4           2             4    7     1      -0.7503146616E-03       5    8    1        -0.4035285346E-01      0.9880212769E-01
          0                 5           2             4    7     1      -0.3899637796E-03       4    7    1        -0.2094176584E-01      0.5129047082E-01
          0                 6           2             4    7     1      -0.1939438561E-03       5    8    1        -0.1041527725E-01      0.2551181417E-01
          0                 7           1             4    7     1      -0.9704871208E-04       4    7    1        -0.5211568024E-02      0.1276565218E-01

    ------------------------------------------------
       NWT REQUIRED            7 OUTER ITERATIONS 
       AND A TOTAL OF         13 INNER ITERATIONS.
    ------------------------------------------------

 NO OUTPUT CONTROL FOR STRESS PERIOD   43   TIME STEP   17
 
 SOLVING FOR HEAD 
                                                   Max.-Head-Change                         Max.-Flux-Residual
  Residual-Control   Outer-Iter.   Inner-Iter.     Column Row Layer    Maximum-Head-Change  Column Row Layer    Maximum-Flux-Residual          L2-NORM 
          0                 1           2             4   13     1       0.5988461943E-02       4   13    1         0.3442404579E+00      0.7590020645E+00
          0                 2           2             5    8     1      -0.7685816831E-02       4   13    1        -0.4448832124E+00      0.1274321357E+01
          0                 3           2             4    7     1      -0.1922648891E-02       4    7    1        -0.1032743337E+00      0.2567515790E+00
          0                 4           2             4    7     1      -0.7557641095E-03       5    8    1        -0.4064750215E-01      0.9952204712E-01
          0                 5           2             4    7     1      -0.3922706225E-03       4    7    1        -0.2106564086E-01      0.5159376837E-01
          0                 6           2             4    7     1      -0.1951254171E-03       5    8    1        -0.1047873399E-01      0.2566728831E-01
          0                 7           1             4    7     1      -0.9763640700E-04       5    7    1        -0.5243171180E-02      0.1284297359E-01

    ------------------------------------------------
       NWT REQUIRED            7 OUTER ITERATIONS 
       AND A TOTAL OF         13 INNER ITERATIONS.
    ------------------------------------------------

 NO OUTPUT CONTROL FOR STRESS PERIOD   43   TIME STEP   18
 
 SOLVING FOR HEAD 
                                                   Max.-Head-Change                         Max.-Flux-Residual
  Residual-Control   Outer-Iter.   Inner-Iter.     Column Row Layer    Maximum-Head-Change  Column Row Layer    Maximum-Flux-Residual          L2-NORM 
          0                 1           2             4   13     1       0.6081381920E-02       4   13    1         0.3495514372E+00      0.7774935597E+00
          0                 2           2             5    8     1      -0.7713613375E-02       4   13    1        -0.4455644167E+00      0.1277851509E+01
          0                 3           2             4    7     1      -0.1923110349E-02       4    7    1        -0.1032995102E+00      0.2567879869E+00
          0                 4           2             4    7     1      -0.7615758631E-03       5    8    1        -0.4096135705E-01      0.1002893025E+00
          0                 5           2             4    7     1      -0.3947818526E-03       4    7    1        -0.2120049131E-01      0.5192397535E-01
          0                 6           2             4    7     1      -0.1964114290E-03       5    6    1        -0.1054789755E-01      0.2583649984E-01
          0                 7           1             4    7     1      -0.9826784346E-04       5    7    1        -0.5277077463E-02      0.1292604857E-01

    ------------------------------------------------
       NWT REQUIRED            7 OUTER ITERATIONS 
       AND A TOTAL OF         13 INNER ITERATIONS.
    ------------------------------------------------

 NO OUTPUT CONTROL FOR STRESS PERIOD   43   TIME STEP   19
 
 SOLVING FOR HEAD 
                                                   Max.-Head-Change                         Max.-Flux-Residual
  Residual-Control   Outer-Iter.   Inner-Iter.     Column Row Layer    Maximum-Head-Change  Column Row Layer    Maximum-Flux-Residual          L2-NORM 
          0                 1           2             4   13     1       0.6166259373E-02       4   13    1         0.3543999317E+00      0.7942563340E+00
          0                 2           2             5    8     1      -0.7726100916E-02       4   13    1        -0.4461891429E+00      0.1279707270E+01
          0                 3           2             4    7     1      -0.1920380367E-02       4    7    1        -0.1031532253E+00      0.2564177291E+00
          0                 4           2             4    7     1      -0.7664778310E-03       5    8    1        -0.4122654988E-01      0.1009367399E+00
          0                 5           2             4    7     1      -0.3967951659E-03       4    7    1        -0.2130860247E-01      0.5218881046E-01
          0                 6           2             4    7     1      -0.1974492779E-03       5    8    1        -0.1060365859E-01      0.2597311887E-01
          0                 7           1             4    7     1      -0.9878679801E-04       5    7    1        -0.5304943380E-02      0.1299435416E-01

    ------------------------------------------------
       NWT REQUIRED            7 OUTER ITERATIONS 
       AND A TOTAL OF         13 INNER ITERATIONS.
    ------------------------------------------------

 NO OUTPUT CONTROL FOR STRESS PERIOD   43   TIME STEP   20
 
 SOLVING FOR HEAD 
                                                   Max.-Head-Change                         Max.-Flux-Residual
  Residual-Control   Outer-Iter.   Inner-Iter.     Column Row Layer    Maximum-Head-Change  Column Row Layer    Maximum-Flux-Residual          L2-NORM 
          0                 1           2             4   13     1       0.6243759628E-02       4   13    1         0.3588244352E+00      0.8106234134E+00
          0                 2           2             5    8     1      -0.7737939395E-02       4   13    1        -0.4467615194E+00      0.1281479357E+01
          0                 3           2             4    7     1      -0.1918821297E-02       4    7    1        -0.1030135901E+00      0.2560576998E+00
          0                 4           2             4    7     1      -0.7717296259E-03       5    8    1        -0.4148805967E-01      0.1015754411E+00
          0                 5           2             4    7     1      -0.3989998917E-03       4    7    1        -0.2141531077E-01      0.5245023822E-01
          0                 6           2             4    7     1      -0.1985794567E-03       5    8    1        -0.1065865110E-01      0.2610767539E-01
          0                 7           1             4    7     1      -0.9934993289E-04       5    8    1        -0.5332319916E-02      0.1306136142E-01

    ------------------------------------------------
       NWT REQUIRED            7 OUTER ITERATIONS 
       AND A TOTAL OF         13 INNER ITERATIONS.
    ------------------------------------------------

 NO OUTPUT CONTROL FOR STRESS PERIOD   43   TIME STEP   21
 
 SOLVING FOR HEAD 
                                                   Max.-Head-Change                         Max.-Flux-Residual
  Residual-Control   Outer-Iter.   Inner-Iter.     Column Row Layer    Maximum-Head-Change  Column Row Layer    Maximum-Flux-Residual          L2-NORM 
          0                 1           2             4   13     1       0.6314574683E-02       4   13    1         0.3628647425E+00      0.8265735154E+00
          0                 2           2             5    8     1      -0.7749173022E-02       4   13    1        -0.4472849666E+00      0.1283163603E+01
          0                 3           2             4    7     1      -0.1916078113E-02       4    7    1        -0.1028663723E+00      0.2556985700E+00
          0                 4           2             4    7     1      -0.7765116322E-03       5    8    1        -0.4174560596E-01      0.1022053436E+00
          0                 5           2             4    7     1      -0.4009639376E-03       4    7    1        -0.2152072156E-01      0.5270834945E-01
          0                 6           2             4    7     1      -0.1995902560E-03       5    8    1        -0.1071290633E-01      0.2624056705E-01
          0                 7           1             4    7     1      -0.9985331287E-04       5    8    1        -0.5359336116E-02      0.1312753695E-01

    ------------------------------------------------
       NWT REQUIRED            7 OUTER ITERATIONS 
       AND A TOTAL OF         13 INNER ITERATIONS.
    ------------------------------------------------

 NO OUTPUT CONTROL FOR STRESS PERIOD   43   TIME STEP   22
 
 SOLVING FOR HEAD 
                                                   Max.-Head-Change                         Max.-Flux-Residual
  Residual-Control   Outer-Iter.   Inner-Iter.     Column Row Layer    Maximum-Head-Change  Column Row Layer    Maximum-Flux-Residual          L2-NORM 
          0                 1           2             4   13     1       0.6379254752E-02       4   13    1         0.3665526775E+00      0.8420832547E+00
          0                 2           2             5    8     1      -0.7759836711E-02       4   13    1        -0.4477653133E+00      0.1284766401E+01
          0                 3           2             4    7     1      -0.1913485332E-02       4    7    1        -0.1027274983E+00      0.2553490844E+00
          0                 4           2             4    7     1      -0.7812242547E-03       5    8    1        -0.4199967292E-01      0.1028266435E+00
          0                 5           2             4    7     1      -0.4028961967E-03       4    7    1        -0.2162442749E-01      0.5296223909E-01
          0                 6           2             4    7     1      -0.2005866242E-03       5    8    1        -0.1076638812E-01      0.2637156429E-01
          0                 7           1             4    7     1      -0.1003521510E-03       5    8    1        -0.5386108485E-02      0.1319311530E-01
          0                 8           1             4    7     1      -0.5016870792E-04       5    6    1        -0.2692653361E-02      0.6595547325E-02

    ------------------------------------------------
       NWT REQUIRED            8 OUTER ITERATIONS 
       AND A TOTAL OF         14 INNER ITERATIONS.
    ------------------------------------------------

 NO OUTPUT CONTROL FOR STRESS PERIOD   43   TIME STEP   23
 
 SOLVING FOR HEAD 
                                                   Max.-Head-Change                         Max.-Flux-Residual
  Residual-Control   Outer-Iter.   Inner-Iter.     Column Row Layer    Maximum-Head-Change  Column Row Layer    Maximum-Flux-Residual          L2-NORM 
          0                 1           2             4   13     1       0.6438548261E-02       4   13    1         0.3699315425E+00      0.8573271862E+00
          0                 2           2             5    8     1      -0.7762427272E-02       4   13    1        -0.4482075103E+00      0.1285477951E+01
          0                 3           2             4    7     1      -0.1907944966E-02       4    7    1        -0.1024303647E+00      0.2546230299E+00
          0                 4           2             4    7     1      -0.7921844825E-03       5    8    1        -0.4258891628E-01      0.1042690416E+00
          0                 5           2             4    7     1      -0.4074183066E-03       4    7    1        -0.2186713593E-01      0.5355663869E-01
          0                 6           2             4    7     1      -0.2029108520E-03       5    8    1        -0.1089113887E-01      0.2667713487E-01
          0                 7           1             4    7     1      -0.1015109403E-03       5    8    1        -0.5448301973E-02      0.1334545972E-01
          0                 8           1             4    7     1      -0.5075055117E-04       5    6    1        -0.2723881521E-02      0.6672039491E-02

    ------------------------------------------------
       NWT REQUIRED            8 OUTER ITERATIONS 
       AND A TOTAL OF         14 INNER ITERATIONS.
    ------------------------------------------------

 NO OUTPUT CONTROL FOR STRESS PERIOD   43   TIME STEP   24
 
 SOLVING FOR HEAD 
                                                   Max.-Head-Change                         Max.-Flux-Residual
  Residual-Control   Outer-Iter.   Inner-Iter.     Column Row Layer    Maximum-Head-Change  Column Row Layer    Maximum-Flux-Residual          L2-NORM 
          0                 1           2             4   13     1       0.6492847097E-02       4   13    1         0.3730237391E+00      0.8721665969E+00
          0                 2           2             5    8     1      -0.7764551531E-02       4   13    1        -0.4486117578E+00      0.1286122756E+01
          0                 3           2             4    7     1      -0.1902462603E-02       4    7    1        -0.1021362859E+00      0.2539068288E+00
          0                 4           2             4    7     1      -0.8030629185E-03       5    8    1        -0.4317360376E-01      0.1057003871E+00
          0                 5           2             4    7     1      -0.4119039468E-03       4    7    1        -0.2210788655E-01      0.5414625977E-01
          0                 6           2             4    7     1      -0.2052209772E-03       5    8    1        -0.1101513179E-01      0.2698084678E-01
          0                 7           1             4    7     1      -0.1026640549E-03       5    8    1        -0.5510190917E-02      0.1349705157E-01
          0                 8           1             4    7     1      -0.5132723942E-04       5    6    1        -0.2754832984E-02      0.6747853803E-02

    ------------------------------------------------
       NWT REQUIRED            8 OUTER ITERATIONS 
       AND A TOTAL OF         14 INNER ITERATIONS.
    ------------------------------------------------

 NO OUTPUT CONTROL FOR STRESS PERIOD   43   TIME STEP   25
 
 SOLVING FOR HEAD 
                                                   Max.-Head-Change                         Max.-Flux-Residual
  Residual-Control   Outer-Iter.   Inner-Iter.     Column Row Layer    Maximum-Head-Change  Column Row Layer    Maximum-Flux-Residual          L2-NORM 
          0                 1           2             4   13     1       0.6542544200E-02       4   13    1         0.3758518199E+00      0.8866098944E+00
          0                 2           2             5    8     1      -0.7766236789E-02       4   13    1        -0.4489837869E+00      0.1286712449E+01
          0                 3           2             4    7     1      -0.1897018571E-02       4    7    1        -0.1018442132E+00      0.2531988696E+00
          0                 4           2             4    7     1      -0.8138742663E-03       5    8    1        -0.4375453783E-01      0.1071227076E+00
          0                 5           2             4    7     1      -0.4163598607E-03       4    7    1        -0.2234704129E-01      0.5473198961E-01
          0                 6           2             4    7     1      -0.2075209688E-03       5    8    1        -0.1113858001E-01      0.2728322675E-01
          0                 7           1             4    7     1      -0.1038056641E-03       5    8    1        -0.5571462364E-02      0.1364713410E-01
          0                 8           1             4    7     1      -0.5189362864E-04       5    6    1        -0.2785231655E-02      0.6822314130E-02

    ------------------------------------------------
       NWT REQUIRED            8 OUTER ITERATIONS 
       AND A TOTAL OF         14 INNER ITERATIONS.
    ------------------------------------------------

 NO OUTPUT CONTROL FOR STRESS PERIOD   43   TIME STEP   26
 
 SOLVING FOR HEAD 
                                                   Max.-Head-Change                         Max.-Flux-Residual
  Residual-Control   Outer-Iter.   Inner-Iter.     Column Row Layer    Maximum-Head-Change  Column Row Layer    Maximum-Flux-Residual          L2-NORM 
          0                 1           2             4   13     1       0.6588240966E-02       4   13    1         0.3784507337E+00      0.9006581766E+00
          0                 2           2             5    8     1      -0.7755084488E-02       4   13    1        -0.4493263393E+00      0.1285901468E+01
          0                 3           2             4    7     1      -0.1890612408E-02       4    7    1        -0.1015004485E+00      0.2523690782E+00
          0                 4           2             4    7     1      -0.8221410293E-03       5    8    1        -0.4419875429E-01      0.1082102900E+00
          0                 5           2             4    7     1      -0.4199145119E-03       4    7    1        -0.2253782304E-01      0.5519924397E-01
          0                 6           2             4    7     1      -0.2094465247E-03       5    8    1        -0.1124193036E-01      0.2753637836E-01
          0                 7           1             4    7     1      -0.1048080270E-03       5    8    1        -0.5625260131E-02      0.1377891009E-01
          0                 8           1             4    7     1      -0.5242645998E-04       5    6    1        -0.2813829175E-02      0.6892362707E-02

    ------------------------------------------------
       NWT REQUIRED            8 OUTER ITERATIONS 
       AND A TOTAL OF         14 INNER ITERATIONS.
    ------------------------------------------------

 NO OUTPUT CONTROL FOR STRESS PERIOD   43   TIME STEP   27
 
 SOLVING FOR HEAD 
                                                   Max.-Head-Change                         Max.-Flux-Residual
  Residual-Control   Outer-Iter.   Inner-Iter.     Column Row Layer    Maximum-Head-Change  Column Row Layer    Maximum-Flux-Residual          L2-NORM 
          0                 1           2             4   13     1       0.6630045758E-02       4   13    1         0.3808263198E+00      0.9142652760E+00
          0                 2           2             5    8     1      -0.7760397565E-02       4   13    1        -0.4496424249E+00      0.1286862664E+01
          0                 3           2             4    7     1      -0.1886398115E-02       4    7    1        -0.1012742788E+00      0.2518248608E+00
          0                 4           2             4    7     1      -0.8311194395E-03       5    8    1        -0.4468102005E-01      0.1093912760E+00
          0                 5           2             4    7     1      -0.4235925792E-03       4    7    1        -0.2273522841E-01      0.5568274019E-01
          0                 6           2             4    7     1      -0.2113201273E-03       5    8    1        -0.1134249155E-01      0.2778269863E-01
          0                 7           1             4    7     1      -0.1057374008E-03       5    8    1        -0.5675140500E-02      0.1390109080E-01
          0                 8           1             4    7     1      -0.5288888684E-04       5    6    1        -0.2838647953E-02      0.6953155669E-02

    ------------------------------------------------
       NWT REQUIRED            8 OUTER ITERATIONS 
       AND A TOTAL OF         14 INNER ITERATIONS.
    ------------------------------------------------

 NO OUTPUT CONTROL FOR STRESS PERIOD   43   TIME STEP   28
 
 SOLVING FOR HEAD 
                                                   Max.-Head-Change                         Max.-Flux-Residual
  Residual-Control   Outer-Iter.   Inner-Iter.     Column Row Layer    Maximum-Head-Change  Column Row Layer    Maximum-Flux-Residual          L2-NORM 
          0                 1           2             4   13     1       0.6668551886E-02       4   13    1         0.3830131576E+00      0.9275124684E+00
          0                 2           2             5    6     1      -0.7764876416E-02       4   13    1        -0.4499320772E+00      0.1287709372E+01
          0                 3           2             4    7     1      -0.1882059901E-02       4    7    1        -0.1010414209E+00      0.2512657457E+00
          0                 4           2             4    7     1      -0.8403253023E-03       5    8    1        -0.4517538347E-01      0.1106014980E+00
          0                 5           2             4    7     1      -0.4273724382E-03       4    7    1        -0.2293809690E-01      0.5617964323E-01
          0                 6           2             4    7     1      -0.2132532344E-03       5    8    1        -0.1144624594E-01      0.2803684100E-01
          0                 7           1             4    7     1      -0.1066914824E-03       5    8    1        -0.5726346971E-02      0.1402651895E-01
          0                 8           1             4    7     1      -0.5336068805E-04       5    6    1        -0.2863969860E-02      0.7015180324E-02

    ------------------------------------------------
       NWT REQUIRED            8 OUTER ITERATIONS 
       AND A TOTAL OF         14 INNER ITERATIONS.
    ------------------------------------------------

 NO OUTPUT CONTROL FOR STRESS PERIOD   43   TIME STEP   29
 
 SOLVING FOR HEAD 
                                                   Max.-Head-Change                         Max.-Flux-Residual
  Residual-Control   Outer-Iter.   Inner-Iter.     Column Row Layer    Maximum-Head-Change  Column Row Layer    Maximum-Flux-Residual          L2-NORM 
          0                 1           2             4   13     1       0.6703918799E-02       4   13    1         0.3850201646E+00      0.9404061538E+00
          0                 2           2             5    6     1      -0.7768405611E-02       4   13    1        -0.4502004157E+00      0.1288436474E+01
          0                 3           2             4    7     1      -0.1877599402E-02       4    7    1        -0.1008019580E+00      0.2506936494E+00
          0                 4           2             4    7     1      -0.8497051985E-03       5    8    1        -0.4567897263E-01      0.1118352865E+00
          0                 5           2             4    7     1      -0.4312167396E-03       4    7    1        -0.2314442386E-01      0.5668500597E-01
          0                 6           2             4    7     1      -0.2152284727E-03       5    8    1        -0.1155226094E-01      0.2829652125E-01
          0                 7           1             4    7     1      -0.1076725980E-03       5    8    1        -0.5779004449E-02      0.1415550172E-01
          0                 8           1             4    7     1      -0.5384392332E-04       5    6    1        -0.2889905441E-02      0.7078708428E-02

    ------------------------------------------------
       NWT REQUIRED            8 OUTER ITERATIONS 
       AND A TOTAL OF         14 INNER ITERATIONS.
    ------------------------------------------------

 NO OUTPUT CONTROL FOR STRESS PERIOD   43   TIME STEP   30



 STREAM LISTING     PERIOD     43   STEP       30

 LAYER ROW COL. STREAM  RCH.  FLOW INTO     FLOW TO   FLOW OUT OF   OVRLND.     DIRECT     STREAM       STREAM     STREAM     STREAM   STREAMBED  STREAMBED
                SEG.NO.  NO.  STRM. RCH.    AQUIFER    STRM. RCH.    RUNOFF     PRECIP       ET          HEAD       DEPTH      WIDTH   CONDCTNC.   GRADIENT

   1    1    1     1     1    2.1749E+01  2.2965E-01   2.1520E+01  0.000E+00  0.000E+00  0.000E+00  1.09418E+03  1.128E+00  1.236E+01  5.564E-02  1.376E+00
   1    2    2     1     2    2.1520E+01  3.5497E-01   2.1165E+01  0.000E+00  0.000E+00  0.000E+00  1.08918E+03  1.123E+00  1.230E+01  8.610E-02  1.374E+00
   1    3    3     1     3    2.1165E+01  3.0207E-01   2.0863E+01  0.000E+00  0.000E+00  0.000E+00  1.08354E+03  1.117E+00  1.223E+01  7.337E-02  1.372E+00
   1    3    4     1     4    2.0863E+01  2.7761E-01   2.0585E+01  0.000E+00  0.000E+00  0.000E+00  1.07852E+03  1.112E+00  1.216E+01  6.751E-02  1.371E+00
   1    4    5     2     1    1.8585E+01  3.1244E-01   1.8273E+01  0.000E+00  0.000E+00  0.000E+00  1.07294E+03  1.006E+00  1.200E+01  7.800E-02  1.335E+00
   1    5    6     2     2    1.8273E+01  2.3979E-01   1.8033E+01  0.000E+00  0.000E+00  0.000E+00  1.06751E+03  9.966E-01  1.200E+01  6.000E-02  1.332E+00
   1    6    6     2     3    1.8033E+01  2.3932E-01   1.7793E+01  0.000E+00  0.000E+00  0.000E+00  1.06278E+03  9.887E-01  1.200E+01  6.000E-02  1.330E+00
   1    7    6     2     4    1.7793E+01  2.3884E-01   1.7555E+01  0.000E+00  0.000E+00  0.000E+00  1.05806E+03  9.807E-01  1.200E+01  6.000E-02  1.327E+00
   1    8    6     2     5    1.7555E+01  2.3837E-01   1.7316E+01  0.000E+00  0.000E+00  0.000E+00  1.05333E+03  9.728E-01  1.200E+01  6.000E-02  1.324E+00
   1    3    5     3     1    2.0000E+00  2.8252E-01   1.7175E+00  0.000E+00  0.000E+00  0.000E+00  1.07555E+03  1.909E+00  9.636E+00  7.227E-02  1.955E+00
   1    3    6     3     2    1.7175E+00  2.4905E-01   1.4684E+00  0.000E+00  0.000E+00  0.000E+00  1.07264E+03  1.727E+00  8.909E+00  6.682E-02  1.864E+00
   1    3    7     3     3    1.4684E+00  1.9718E-01   1.2712E+00  0.000E+00  0.000E+00  0.000E+00  1.06987E+03  1.555E+00  8.218E+00  5.547E-02  1.777E+00
   1    4    8     3     4    1.2712E+00  2.2567E-01   1.0456E+00  0.000E+00  0.000E+00  0.000E+00  1.06682E+03  1.364E+00  7.455E+00  6.709E-02  1.682E+00
   1    5    8     3     5    1.0456E+00  1.5790E-01   8.8768E-01  0.000E+00  0.000E+00  0.000E+00  1.06362E+03  1.164E+00  6.655E+00  4.991E-02  1.582E+00
   1    6    8     3     6    8.8768E-01  5.5980E-02   8.3170E-01  0.000E+00  0.000E+00  0.000E+00  1.06158E+03  1.036E+00  6.145E+00  1.844E-02  1.518E+00
   1    5   10     4     1    1.0000E+01  9.0919E-02   9.9091E+00  0.000E+00  0.000E+00  0.000E+00  1.07836E+03  6.368E-01  1.000E+01  2.500E-02  1.212E+00
   1    5    9     4     2    9.9091E+00  1.8158E-01   9.7275E+00  0.000E+00  0.000E+00  0.000E+00  1.07154E+03  6.315E-01  1.000E+01  5.000E-02  1.211E+00
   1    6    8     4     3    9.7275E+00  1.2689E-01   9.6006E+00  0.000E+00  0.000E+00  0.000E+00  1.06381E+03  6.256E-01  1.000E+01  3.500E-02  1.209E+00
   1    6    8     5     1    1.0432E+01  2.2686E-01   1.0205E+01  0.000E+00  0.000E+00  0.000E+00  1.05868E+03  6.790E-01  1.542E+01  6.166E-02  1.226E+00
   1    7    7     5     2    1.0205E+01  2.7894E-01   9.9265E+00  0.000E+00  0.000E+00  0.000E+00  1.05417E+03  6.732E-01  1.519E+01  7.594E-02  1.224E+00
   1    8    7     5     3    9.9265E+00  1.9221E-01   9.7343E+00  0.000E+00  0.000E+00  0.000E+00  1.04992E+03  6.676E-01  1.497E+01  5.241E-02  1.223E+00
   1    8    6     5     4    9.7343E+00  1.3577E-01   9.5985E+00  0.000E+00  0.000E+00  0.000E+00  1.04691E+03  6.637E-01  1.482E+01  3.706E-02  1.221E+00
   1    9    6     6     1    9.5985E+00  2.2097E-01   9.3776E+00  0.000E+00  0.000E+00  0.000E+00  1.04341E+03  6.828E-01  1.200E+01  6.000E-02  1.228E+00
   1   10    7     6     2    9.3776E+00  2.2039E-01   9.1572E+00  0.000E+00  0.000E+00  0.000E+00  1.03885E+03  6.732E-01  1.200E+01  6.000E-02  1.224E+00
   1   11    7     6     3    9.1572E+00  2.1981E-01   8.9374E+00  0.000E+00  0.000E+00  0.000E+00  1.03430E+03  6.636E-01  1.200E+01  6.000E-02  1.221E+00
   1   12    7     6     4    8.9374E+00  2.1923E-01   8.7181E+00  0.000E+00  0.000E+00  0.000E+00  1.02974E+03  6.539E-01  1.200E+01  6.000E-02  1.218E+00
   1   13    7     6     5    8.7181E+00 -1.2582E-02   8.7307E+00  0.000E+00  0.000E+00  0.000E+00  1.02656E+03  6.493E-01  1.200E+01  2.400E-01 -1.747E-02
   1   14    9     7     1    1.5000E+02  1.3901E+00   1.4861E+02  0.000E+00  0.000E+00  0.000E+00  1.03987E+03  2.288E+00  5.529E+01  5.593E-01  8.285E-01
   1   13    8     7     2    1.4861E+02  1.9905E+00   1.4662E+02  0.000E+00  0.000E+00  0.000E+00  1.03478E+03  2.279E+00  5.525E+01  6.147E-01  1.079E+00
   1   13    7     7     3    1.4662E+02  1.7182E+00   1.4490E+02  0.000E+00  0.000E+00  0.000E+00  1.02969E+03  2.269E+00  5.521E+01  5.584E-01  1.026E+00
   1   13    6     8     1    1.5363E+02  1.0674E+00   1.5256E+02  0.000E+00  0.000E+00  0.000E+00  1.02471E+03  2.839E+00  4.116E+01  4.194E-01  8.483E-01
   1   13    5     8     2    1.5256E+02  3.2107E-01   1.5224E+02  0.000E+00  0.000E+00  0.000E+00  1.01846E+03  2.834E+00  4.109E+01  4.187E-01  2.556E-01
   1   13    4     8     3    1.5224E+02 -1.9238E+00   1.5417E+02  0.000E+00  0.000E+00  0.000E+00  1.01221E+03  2.839E+00  4.117E+01  4.195E+00 -1.529E-01
   1   13    3     8     4    1.5417E+02 -3.3952E+00   1.5756E+02  0.000E+00  0.000E+00  0.000E+00  1.00598E+03  2.858E+00  4.144E+01  4.222E+00 -2.680E-01
   1   13    2     8     5    1.5756E+02 -2.5411E+00   1.6010E+02  0.000E+00  0.000E+00  0.000E+00  9.99753E+02  2.878E+00  4.173E+01  4.252E+00 -1.992E-01
   1   13    1     8     6    1.6010E+02 -2.0038E+00   1.6211E+02  0.000E+00  0.000E+00  0.000E+00  9.94768E+02  2.893E+00  4.195E+01  2.565E+00 -2.604E-01
   1    8    6     9     1    1.7316E+01  0.0000E+00   1.7316E+01  0.000E+00  0.000E+00  0.000E+00  1.08190E+03  3.150E+00  4.000E+00  0.000E+00  2.050E+00
   1    8    5     9     2    1.7316E+01  0.0000E+00   1.7316E+01  0.000E+00  0.000E+00  0.000E+00  1.08140E+03  3.150E+00  4.000E+00  0.000E+00  2.050E+00





UNSATURATED ZONE PACKAGE VOLUMETRIC BUDGET FOR  TIME STEP    30 STRESS PERIOD   43
  ------------------------------------------------------------------------------



     CUMULATIVE VOLUMES      L**3       RATES FOR THIS TIME STEP      L**3/T
     ------------------                 ------------------------

           IN:                                      IN:
           ---                                      ---
        INFILTRATION =  1755331714.4255          INFILTRATION =          26.7092

          OUT:                                     OUT:
          ----                                     ----
              UZF ET =  1623332250.4393                UZF ET =          26.5976
        UZF RECHARGE =     1239720.7563          UZF RECHARGE =       0.0000E+00

            IN - OUT =   130759743.2300              IN - OUT =           0.1116

          STORAGE:                                 STORAGE:
          --------                                 --------
      STORAGE CHANGE =   130759719.1359        STORAGE CHANGE =           0.1116

 PERCENT DISCREPANCY IS DIFFERENCE BETWEEN IN-OUT MINUS CHANGE IN STORAGE
 DIVIDED BY THE AVERAGE OF IN AND OUT TIMES 100

 PERCENT DISCREPANCY =           0.00     PERCENT DISCREPANCY =           0.00






1
  VOLUMETRIC BUDGET FOR AGRICULTURAL FIELDS AT  END OF TIME STEP   30, STRESS PERIOD  43
  ------------------------------------------------------------------------------

     CUMULATIVE VOLUMES      L**3       RATES FOR THIS TIME STEP      L**3/T
     ------------------                 ------------------------

           IN:                                      IN:
           ---                                      ---
               AG WELLS  =   606465664.0000                 AG WELLS  =           4.9851
      DIVERSION SEGMENTS =   661928512.0000        DIVERSION SEGMENTS =          17.3163
           GW IRRIGATION =           0.0000             GW IRRIGATION =           0.0000
           SW IRRIGATION =           0.0000             SW IRRIGATION =           0.0000
        SYSTEM LOSSES GW =           0.0000          SYSTEM LOSSES GW =           0.0000
        SYSTEM LOSSES SW =           0.0000          SYSTEM LOSSES SW =           0.0000

                TOTAL IN =  1268394240.0000                  TOTAL IN =          22.3014

          OUT:                                     OUT:
          ----                                     ----
               AG WELLS  =           0.0000                 AG WELLS  =           0.0000
      DIVERSION SEGMENTS =           0.0000        DIVERSION SEGMENTS =           0.0000
           GW IRRIGATION =   606465664.0000             GW IRRIGATION =           4.9851
           SW IRRIGATION =   661940480.0000             SW IRRIGATION =          17.3166
        SYSTEM LOSSES GW =           0.0000          SYSTEM LOSSES GW =           0.0000
        SYSTEM LOSSES SW =           0.0000          SYSTEM LOSSES SW =           0.0000

               TOTAL OUT =  1268406144.0000                 TOTAL OUT =          22.3017

                IN - OUT =      -11904.0000                  IN - OUT =      -3.4523E-04

     PERCENT DISCREPANCY =          -0.00         PERCENT DISCREPANCY =          -0.00



1
  VOLUMETRIC BUDGET FOR ENTIRE MODEL AT END OF TIME STEP   30, STRESS PERIOD  43
  ------------------------------------------------------------------------------

     CUMULATIVE VOLUMES      L**3       RATES FOR THIS TIME STEP      L**3/T
     ------------------                 ------------------------

           IN:                                      IN:
           ---                                      ---
             STORAGE     =   908069952.0000               STORAGE     =           3.7071
       CONSTANT HEAD     =           0.0000         CONSTANT HEAD     =           0.0000
     HEAD DEP BOUNDS     =    31885728.0000       HEAD DEP BOUNDS     =           0.2895
      STREAM LEAKAGE     =  1311947520.0000        STREAM LEAKAGE     =          12.2022
        UZF RECHARGE     =     1239721.0000          UZF RECHARGE     =           0.0000
               GW ET     =           0.0000                 GW ET     =           0.0000
     SURFACE LEAKAGE     =           0.0000       SURFACE LEAKAGE     =           0.0000
           AG WELLS      =           0.0000             AG WELLS      =           0.0000

                TOTAL IN =  2253143040.0000                  TOTAL IN =          16.1987

          OUT:                                     OUT:
          ----                                     ----
             STORAGE     =   503258944.0000               STORAGE     =           1.0491
       CONSTANT HEAD     =           0.0000         CONSTANT HEAD     =           0.0000
     HEAD DEP BOUNDS     =    31829132.0000       HEAD DEP BOUNDS     =           0.2869
      STREAM LEAKAGE     =  1111539968.0000        STREAM LEAKAGE     =           9.8765
        UZF RECHARGE     =           0.0000          UZF RECHARGE     =           0.0000
               GW ET     =           0.0000                 GW ET     =           0.0000
     SURFACE LEAKAGE     =           0.0000       SURFACE LEAKAGE     =           0.0000
           AG WELLS      =   606465664.0000             AG WELLS      =           4.9851

               TOTAL OUT =  2253093888.0000                 TOTAL OUT =          16.1975

                IN - OUT =       49152.0000                  IN - OUT =       1.2264E-03

     PERCENT DISCREPANCY =           0.00         PERCENT DISCREPANCY =           0.01






         TIME SUMMARY AT END OF TIME STEP   30 IN STRESS PERIOD   43
                    SECONDS     MINUTES      HOURS       DAYS        YEARS
                    -----------------------------------------------------------
   TIME STEP LENGTH  87667.      1461.1      24.352      1.0147     2.77799E-03
 STRESS PERIOD TIME 2.63000E+06  43833.      730.56      30.440     8.33397E-02
         TOTAL TIME 1.10545E+08 1.84242E+06  30707.      1279.5      3.5030    
1
1
                            STRESS PERIOD NO.   44, LENGTH =   2630000.    
                            -----------------------------------------------

                              NUMBER OF TIME STEPS =    30

                               MULTIPLIER FOR DELT =     1.000

                            INITIAL TIME STEP SIZE =   87666.66    

 REUSING NON-PARAMETER GHB CELLS FROM LAST STRESS PERIOD

      2 GHB CELLS

 REUSING STREAM SEGMENT DATA FROM LAST STRESS PERIOD



            AREAL INFILTRATION RATE
 READING ON UNIT   19 WITH FORMAT: (10F4.0)            

            1           2           3           4           5           6           7           8           9          10
 ........................................................................................................................
   1   1.2000E-09   0.000       0.000       0.000       0.000       0.000       0.000       0.000       0.000       0.000    
   2   2.1000E-09  2.0000E-09  8.0000E-10  8.5000E-09   0.000       0.000       0.000       0.000       0.000       0.000    
   3   5.0000E-10  1.1000E-09  8.8000E-09  5.5000E-09   0.000       0.000       0.000       0.000       0.000       0.000    
   4   8.5000E-09  1.1000E-09  1.1000E-09  1.1000E-09  2.0000E-09   0.000       0.000       0.000       0.000       0.000    
   5   8.5000E-09  1.1000E-09  1.1000E-09  1.1000E-09  1.1000E-09   0.000       0.000       0.000       0.000       0.000    
   6   8.5000E-09  5.2000E-09  2.1000E-09  1.1000E-09  1.5000E-09   0.000       0.000       0.000       0.000       0.000    
   7   8.5000E-09  5.2000E-09  2.1000E-09  1.2000E-09  2.0000E-09   0.000       0.000       0.000       0.000       0.000    
   8   5.0000E-10  5.2000E-09  2.1000E-09  1.2000E-09  5.0000E-09   0.000       0.000       0.000       0.000       0.000    
   9   5.0000E-10  5.2000E-09  2.1000E-09  1.2000E-09  5.0000E-09   0.000       0.000       0.000       0.000       0.000    
  10   5.0000E-10  5.2000E-09  2.1000E-09  1.2000E-09  5.8000E-09   0.000       0.000       0.000       0.000       0.000    
  11   1.0000E-10  1.1000E-09  1.1000E-09  1.2000E-09  5.0000E-09   0.000       0.000       0.000       0.000       0.000    
  12   1.1000E-09  1.1000E-09  1.1000E-09  1.1000E-09  2.0000E-09   0.000       0.000       0.000       0.000       0.000    
  13   1.1000E-09  2.2000E-09  2.2000E-09  2.1000E-09  1.0000E-09   0.000       0.000       0.000       0.000       0.000    
  14   2.0000E-10  5.5000E-09  5.5000E-09  5.2000E-09  1.0000E-09   0.000       0.000       0.000       0.000       0.000    
  15    0.000      8.8000E-09  8.8000E-09   0.000       0.000       0.000       0.000       0.000       0.000       0.000    

                  ET RATE =  4.000000E-07

 USING ET EXTINCTION DEPTH FROM PREVIOUS STRESS PERIOD. CURRENT PERIOD IS:      44

 USING EXTINCTION WATER CONTENT FROM PREVIOUS STRESS PERIOD. CURRENT PERIOD IS:      44

 USING AIR ENTRY PRESSURE FROM PREVIOUS STRESS PERIOD. CURRENT PERIOD IS:      44

 USING ROOT PRESSURE HEAD FROM PREVIOUS STRESS PERIOD. CURRENT PERIOD IS:      44

 USING ROOT ACTIVITY FROM PREVIOUS STRESS PERIOD. CURRENT PERIOD IS:      44

 PROCESSING AG STRESS PERIOD DATA

 READING AG STRESS PERIOD DATA

 READING IRRIGATION SEGMENT

 READING IRRIGATION WELL

 READING SUPPLEMENTAL WELL

 END PROCESSING AG STRESS PERIOD DATA OPTIONS
 
 SOLVING FOR HEAD 
                                                   Max.-Head-Change                         Max.-Flux-Residual
  Residual-Control   Outer-Iter.   Inner-Iter.     Column Row Layer    Maximum-Head-Change  Column Row Layer    Maximum-Flux-Residual          L2-NORM 
          0                 1           2             4    7     1      -0.1048694786E+00       4    7    1        -0.5478830678E+01      0.1321652514E+02
          0                 2           2             4   13     1      -0.7664032565E-02       4   13    1        -0.4504485536E+00      0.7837944661E+00
          0                 3           2             4    7     1      -0.4439233972E-02       4    7    1        -0.2449547904E+00      0.6006403169E+00
          0                 4           2             4    7     1      -0.1995557250E-02       5    8    1        -0.1101431133E+00      0.2697613583E+00
          0                 5           2             4    7     1      -0.1006825227E-02       4    7    1        -0.5554934653E-01      0.1360646592E+00
          0                 6           2             4    7     1      -0.6199350005E-03       4    6    1        -0.3420320654E-01      0.8378027245E-01
          0                 7           2             4    7     1      -0.5255795744E-03       4    7    1        -0.2899706963E-01      0.7102793563E-01
          0                 8           2             4    7     1      -0.4376107894E-03       4    7    1        -0.2414346138E-01      0.5913908659E-01
          0                 9           2             4    7     1      -0.3647046011E-03       4    7    1        -0.2012095422E-01      0.4928600928E-01
          0                10           2             4    7     1      -0.3039043286E-03       4    7    1        -0.1676640849E-01      0.4106909406E-01
                                                   Max.-Head-Change                         Max.-Flux-Residual
  Residual-Control   Outer-Iter.   Inner-Iter.     Column Row Layer    Maximum-Head-Change  Column Row Layer    Maximum-Flux-Residual          L2-NORM 
          0                11           2             4    7     1      -0.2532653075E-03       4    7    1        -0.1397251830E-01      0.3422549733E-01
          0                12           2             4    7     1      -0.2110520986E-03       4    7    1        -0.1164352512E-01      0.2852065954E-01
          0                13           2             4    7     1      -0.1758750658E-03       4    7    1        -0.9702751518E-02      0.2376676048E-01
          0                14           2             4    7     1      -0.1465637831E-03       4    7    1        -0.8085616342E-02      0.1980560939E-01
          0                15           2             4    7     1      -0.1221289985E-03       4    7    1        -0.6737535805E-02      0.1650350411E-01
          0                16           1             4    7     1      -0.1017814809E-03       4    7    1        -0.5614962736E-02      0.1375377637E-01
          0                17           1             4    7     1      -0.8481887747E-04       4    8    1        -0.4679151361E-02      0.1146150235E-01

    ------------------------------------------------
       NWT REQUIRED           17 OUTER ITERATIONS 
       AND A TOTAL OF         32 INNER ITERATIONS.
    ------------------------------------------------

 NO OUTPUT CONTROL FOR STRESS PERIOD   44   TIME STEP    1
 
 SOLVING FOR HEAD 
                                                   Max.-Head-Change                         Max.-Flux-Residual
  Residual-Control   Outer-Iter.   Inner-Iter.     Column Row Layer    Maximum-Head-Change  Column Row Layer    Maximum-Flux-Residual          L2-NORM 
          0                 1           2             4    7     1      -0.1268163812E+00       4    7    1        -0.6627466070E+01      0.1582530264E+02
          0                 2           2             4    7     1       0.1217164979E-01       4    7    1         0.6539362854E+00      0.1739633400E+01
          0                 3           2             4    7     1      -0.9617929677E-03       4    7    1        -0.5311081888E-01      0.1371535130E+00
          0                 4           1             4    7     1      -0.7144284726E-04       5    8    1        -0.4024987909E-02      0.9972756124E-02

    ------------------------------------------------
       NWT REQUIRED            4 OUTER ITERATIONS 
       AND A TOTAL OF          7 INNER ITERATIONS.
    ------------------------------------------------

 NO OUTPUT CONTROL FOR STRESS PERIOD   44   TIME STEP    2
 
 SOLVING FOR HEAD 
                                                   Max.-Head-Change                         Max.-Flux-Residual
  Residual-Control   Outer-Iter.   Inner-Iter.     Column Row Layer    Maximum-Head-Change  Column Row Layer    Maximum-Flux-Residual          L2-NORM 
          0                 1           2             4    7     1      -0.1260302004E+00       4    7    1        -0.6589055320E+01      0.1554790311E+02
          0                 2           2             4    7     1       0.1209503874E-01       4    7    1         0.6500876676E+00      0.1714979502E+01
          0                 3           2             4    7     1      -0.9566714056E-03       4    7    1        -0.5284666879E-01      0.1353649869E+00
          0                 4           1             5    8     1      -0.7210034068E-04       5    8    1        -0.4080600097E-02      0.1006783332E-01

    ------------------------------------------------
       NWT REQUIRED            4 OUTER ITERATIONS 
       AND A TOTAL OF          7 INNER ITERATIONS.
    ------------------------------------------------

 NO OUTPUT CONTROL FOR STRESS PERIOD   44   TIME STEP    3
 
 SOLVING FOR HEAD 
                                                   Max.-Head-Change                         Max.-Flux-Residual
  Residual-Control   Outer-Iter.   Inner-Iter.     Column Row Layer    Maximum-Head-Change  Column Row Layer    Maximum-Flux-Residual          L2-NORM 
          0                 1           2             4    7     1      -0.1252050797E+00       4    7    1        -0.6548395276E+01      0.1528430869E+02
          0                 2           2             4    7     1       0.1201524542E-01       4    7    1         0.6460466415E+00      0.1691709372E+01
          0                 3           2             4    7     1      -0.9508578046E-03       4    7    1        -0.5254282321E-01      0.1336125880E+00
          0                 4           1             5    8     1      -0.7259136386E-04       5    8    1        -0.4109572682E-02      0.1010317643E-01

    ------------------------------------------------
       NWT REQUIRED            4 OUTER ITERATIONS 
       AND A TOTAL OF          7 INNER ITERATIONS.
    ------------------------------------------------

 NO OUTPUT CONTROL FOR STRESS PERIOD   44   TIME STEP    4
 
 SOLVING FOR HEAD 
                                                   Max.-Head-Change                         Max.-Flux-Residual
  Residual-Control   Outer-Iter.   Inner-Iter.     Column Row Layer    Maximum-Head-Change  Column Row Layer    Maximum-Flux-Residual          L2-NORM 
          0                 1           2             4    7     1      -0.1243415850E+00       4    7    1        -0.6505528153E+01      0.1503305675E+02
          0                 2           2             4    7     1       0.1193172067E-01       4    7    1         0.6417849970E+00      0.1669612724E+01
          0                 3           2             4    7     1      -0.9447814628E-03       4    7    1        -0.5222305664E-01      0.1319389431E+00
          0                 4           1             5    8     1      -0.7308130815E-04       5    8    1        -0.4138380059E-02      0.1014203441E-01

    ------------------------------------------------
       NWT REQUIRED            4 OUTER ITERATIONS 
       AND A TOTAL OF          7 INNER ITERATIONS.
    ------------------------------------------------

 NO OUTPUT CONTROL FOR STRESS PERIOD   44   TIME STEP    5
 
 SOLVING FOR HEAD 
                                                   Max.-Head-Change                         Max.-Flux-Residual
  Residual-Control   Outer-Iter.   Inner-Iter.     Column Row Layer    Maximum-Head-Change  Column Row Layer    Maximum-Flux-Residual          L2-NORM 
          0                 1           2             4    7     1      -0.1272033762E+00       4    7    1        -0.6656960838E+01      0.1526985277E+02
          0                 2           2             4    7     1       0.1221055654E-01       4    7    1         0.6569514768E+00      0.1668628062E+01
          0                 3           2             4    7     1      -0.9633978064E-03       4    7    1        -0.5326421700E-01      0.1321993855E+00
          0                 4           1             5    6     1      -0.7248229489E-04       5    6    1        -0.4102321186E-02      0.1001206040E-01

    ------------------------------------------------
       NWT REQUIRED            4 OUTER ITERATIONS 
       AND A TOTAL OF          7 INNER ITERATIONS.
    ------------------------------------------------

 NO OUTPUT CONTROL FOR STRESS PERIOD   44   TIME STEP    6
 
 SOLVING FOR HEAD 
                                                   Max.-Head-Change                         Max.-Flux-Residual
  Residual-Control   Outer-Iter.   Inner-Iter.     Column Row Layer    Maximum-Head-Change  Column Row Layer    Maximum-Flux-Residual          L2-NORM 
          0                 1           2             4    7     1      -0.1271027208E+00       4    7    1        -0.6653640325E+01      0.1513842335E+02
          0                 2           2             4    7     1       0.1220118750E-01       4    7    1         0.6566430535E+00      0.1650624118E+01
          0                 3           2             4    7     1      -0.9623971332E-03       4    7    1        -0.5322260667E-01      0.1309338242E+00
          0                 4           1             5    6     1      -0.7267872199E-04       5    8    1        -0.4121465981E-02      0.1001860472E-01

    ------------------------------------------------
       NWT REQUIRED            4 OUTER ITERATIONS 
       AND A TOTAL OF          7 INNER ITERATIONS.
    ------------------------------------------------

 NO OUTPUT CONTROL FOR STRESS PERIOD   44   TIME STEP    7
 
 SOLVING FOR HEAD 
                                                   Max.-Head-Change                         Max.-Flux-Residual
  Residual-Control   Outer-Iter.   Inner-Iter.     Column Row Layer    Maximum-Head-Change  Column Row Layer    Maximum-Flux-Residual          L2-NORM 
          0                 1           2             4    7     1      -0.1261198418E+00       4    7    1        -0.6604103071E+01      0.1490732476E+02
          0                 2           2             4    7     1       0.1208385987E-01       4    7    1         0.6505234338E+00      0.1627350197E+01
          0                 3           2             4    7     1      -0.9504409097E-03       4    7    1        -0.5257536924E-01      0.1287255397E+00
          0                 4           1             5    8     1      -0.7039175566E-04       5    8    1        -0.3993312046E-02      0.9685352049E-02

    ------------------------------------------------
       NWT REQUIRED            4 OUTER ITERATIONS 
       AND A TOTAL OF          7 INNER ITERATIONS.
    ------------------------------------------------

 NO OUTPUT CONTROL FOR STRESS PERIOD   44   TIME STEP    8
 
 SOLVING FOR HEAD 
                                                   Max.-Head-Change                         Max.-Flux-Residual
  Residual-Control   Outer-Iter.   Inner-Iter.     Column Row Layer    Maximum-Head-Change  Column Row Layer    Maximum-Flux-Residual          L2-NORM 
          0                 1           2             4    7     1      -0.1251105498E+00       4    7    1        -0.6553019872E+01      0.1468610210E+02
          0                 2           2             4    7     1       0.1182034143E-01       4    7    1         0.6365407406E+00      0.1588276064E+01
          0                 3           2             4    7     1      -0.9746291676E-03       4    7    1        -0.5392116304E-01      0.1311235462E+00
          0                 4           1             5    8     1      -0.4880593826E-04       5    8    1        -0.2772505458E-02      0.6757940625E-02

    ------------------------------------------------
       NWT REQUIRED            4 OUTER ITERATIONS 
       AND A TOTAL OF          7 INNER ITERATIONS.
    ------------------------------------------------

 NO OUTPUT CONTROL FOR STRESS PERIOD   44   TIME STEP    9
 
 SOLVING FOR HEAD 
                                                   Max.-Head-Change                         Max.-Flux-Residual
  Residual-Control   Outer-Iter.   Inner-Iter.     Column Row Layer    Maximum-Head-Change  Column Row Layer    Maximum-Flux-Residual          L2-NORM 
          0                 1           2             4    7     1      -0.1240751227E+00       4    7    1        -0.6500419370E+01      0.1447347661E+02
          0                 2           2             4    7     1       0.1161654173E-01       4    7    1         0.6257480560E+00      0.1557489184E+01
          0                 3           2             4    7     1      -0.1011042844E-02       4    7    1        -0.5594039206E-01      0.1351298688E+00
          0                 4           1             5    8     1      -0.7231444187E-04       5    8    1        -0.4103869298E-02      0.9909198529E-02

    ------------------------------------------------
       NWT REQUIRED            4 OUTER ITERATIONS 
       AND A TOTAL OF          7 INNER ITERATIONS.
    ------------------------------------------------

 NO OUTPUT CONTROL FOR STRESS PERIOD   44   TIME STEP   10
 
 SOLVING FOR HEAD 
                                                   Max.-Head-Change                         Max.-Flux-Residual
  Residual-Control   Outer-Iter.   Inner-Iter.     Column Row Layer    Maximum-Head-Change  Column Row Layer    Maximum-Flux-Residual          L2-NORM 
          0                 1           2             4    7     1      -0.1230167418E+00       4    7    1        -0.6446476693E+01      0.1426891445E+02
          0                 2           2             4    7     1       0.1149693564E-01       4    7    1         0.6194598848E+00      0.1537568824E+01
          0                 3           2             4    7     1      -0.1011031286E-02       4    7    1        -0.5594892617E-01      0.1346281461E+00
          0                 4           1             5    8     1      -0.7662267653E-04       5    8    1        -0.4348465318E-02      0.1047998854E-01

    ------------------------------------------------
       NWT REQUIRED            4 OUTER ITERATIONS 
       AND A TOTAL OF          7 INNER ITERATIONS.
    ------------------------------------------------

 NO OUTPUT CONTROL FOR STRESS PERIOD   44   TIME STEP   11
 
 SOLVING FOR HEAD 
                                                   Max.-Head-Change                         Max.-Flux-Residual
  Residual-Control   Outer-Iter.   Inner-Iter.     Column Row Layer    Maximum-Head-Change  Column Row Layer    Maximum-Flux-Residual          L2-NORM 
          0                 1           2             4    7     1      -0.1219404670E+00       4    7    1        -0.6391460392E+01      0.1407241658E+02
          0                 2           2             4    7     1       0.1139157247E-01       4    7    1         0.6139222365E+00      0.1520271425E+01
          0                 3           2             4    7     1      -0.1004193999E-02       4    7    1        -0.5557988953E-01      0.1333361826E+00
          0                 4           1             5    8     1      -0.7736010546E-04       5    8    1        -0.4390893853E-02      0.1056733914E-01

    ------------------------------------------------
       NWT REQUIRED            4 OUTER ITERATIONS 
       AND A TOTAL OF          7 INNER ITERATIONS.
    ------------------------------------------------

 NO OUTPUT CONTROL FOR STRESS PERIOD   44   TIME STEP   12
 
 SOLVING FOR HEAD 
                                                   Max.-Head-Change                         Max.-Flux-Residual
  Residual-Control   Outer-Iter.   Inner-Iter.     Column Row Layer    Maximum-Head-Change  Column Row Layer    Maximum-Flux-Residual          L2-NORM 
          0                 1           2             4    7     1      -0.1208494722E+00       4    7    1        -0.6335544736E+01      0.1388355901E+02
          0                 2           2             4    7     1       0.1128476041E-01       4    7    1         0.6082937495E+00      0.1503698487E+01
          0                 3           2             4    7     1      -0.9972407664E-03       4    7    1        -0.5520354004E-01      0.1320894390E+00
          0                 4           1             5    8     1      -0.7806139214E-04       5    8    1        -0.4431214742E-02      0.1065142404E-01

    ------------------------------------------------
       NWT REQUIRED            4 OUTER ITERATIONS 
       AND A TOTAL OF          7 INNER ITERATIONS.
    ------------------------------------------------

 NO OUTPUT CONTROL FOR STRESS PERIOD   44   TIME STEP   13
 
 SOLVING FOR HEAD 
                                                   Max.-Head-Change                         Max.-Flux-Residual
  Residual-Control   Outer-Iter.   Inner-Iter.     Column Row Layer    Maximum-Head-Change  Column Row Layer    Maximum-Flux-Residual          L2-NORM 
          0                 1           2             4    7     1      -0.1197460318E+00       4    7    1        -0.6278857167E+01      0.1370183852E+02
          0                 2           2             4    7     1       0.1117677391E-01       4    7    1         0.6025900247E+00      0.1487812970E+01
          0                 3           2             4    7     1      -0.9902075647E-03       4    7    1        -0.5482192347E-01      0.1308911135E+00
          0                 4           1             5    8     1      -0.7874446936E-04       5    8    1        -0.4470448179E-02      0.1073487169E-01

    ------------------------------------------------
       NWT REQUIRED            4 OUTER ITERATIONS 
       AND A TOTAL OF          7 INNER ITERATIONS.
    ------------------------------------------------

 NO OUTPUT CONTROL FOR STRESS PERIOD   44   TIME STEP   14
 
 SOLVING FOR HEAD 
                                                   Max.-Head-Change                         Max.-Flux-Residual
  Residual-Control   Outer-Iter.   Inner-Iter.     Column Row Layer    Maximum-Head-Change  Column Row Layer    Maximum-Flux-Residual          L2-NORM 
          0                 1           2             4    7     1      -0.1186322661E+00       4    7    1        -0.6221515623E+01      0.1352682922E+02
          0                 2           2             4    7     1       0.1106775700E-01       4    7    1         0.5968195140E+00      0.1472561204E+01
          0                 3           2             4    7     1      -0.9831214863E-03       4    7    1        -0.5443658520E-01      0.1297378373E+00
          0                 4           1             5    8     1      -0.7937681341E-04       5    8    1        -0.4506757944E-02      0.1081268117E-01

    ------------------------------------------------
       NWT REQUIRED            4 OUTER ITERATIONS 
       AND A TOTAL OF          7 INNER ITERATIONS.
    ------------------------------------------------

 NO OUTPUT CONTROL FOR STRESS PERIOD   44   TIME STEP   15
 
 SOLVING FOR HEAD 
                                                   Max.-Head-Change                         Max.-Flux-Residual
  Residual-Control   Outer-Iter.   Inner-Iter.     Column Row Layer    Maximum-Head-Change  Column Row Layer    Maximum-Flux-Residual          L2-NORM 
          0                 1           2             4    7     1      -0.1175104593E+00       4    7    1        -0.6163647519E+01      0.1335814031E+02
          0                 2           2             4    7     1       0.1095797623E-01       4    7    1         0.5909973394E+00      0.1457912925E+01
          0                 3           2             4    7     1      -0.9759661095E-03       4    7    1        -0.5404667641E-01      0.1286239734E+00
          0                 4           1             5    8     1      -0.8002020688E-04       5    8    1        -0.4543645166E-02      0.1089352690E-01

    ------------------------------------------------
       NWT REQUIRED            4 OUTER ITERATIONS 
       AND A TOTAL OF          7 INNER ITERATIONS.
    ------------------------------------------------

 NO OUTPUT CONTROL FOR STRESS PERIOD   44   TIME STEP   16
 
 SOLVING FOR HEAD 
                                                   Max.-Head-Change                         Max.-Flux-Residual
  Residual-Control   Outer-Iter.   Inner-Iter.     Column Row Layer    Maximum-Head-Change  Column Row Layer    Maximum-Flux-Residual          L2-NORM 
          0                 1           2             4    7     1      -0.1163824102E+00       4    7    1        -0.6105353812E+01      0.1319539058E+02
          0                 2           2             4    7     1       0.1084757097E-01       4    7    1         0.5851316855E+00      0.1443823784E+01
          0                 3           2             4    7     1      -0.9687854977E-03       4    7    1        -0.5365467742E-01      0.1275508709E+00
          0                 4           1             5    8     1      -0.8061591947E-04       5    8    1        -0.4577789645E-02      0.1096941029E-01

    ------------------------------------------------
       NWT REQUIRED            4 OUTER ITERATIONS 
       AND A TOTAL OF          7 INNER ITERATIONS.
    ------------------------------------------------

 NO OUTPUT CONTROL FOR STRESS PERIOD   44   TIME STEP   17
 
 SOLVING FOR HEAD 
                                                   Max.-Head-Change                         Max.-Flux-Residual
  Residual-Control   Outer-Iter.   Inner-Iter.     Column Row Layer    Maximum-Head-Change  Column Row Layer    Maximum-Flux-Residual          L2-NORM 
          0                 1           2             4    7     1      -0.1152499620E+00       4    7    1        -0.6046737464E+01      0.1303824961E+02
          0                 2           2             4    7     1       0.1073673825E-01       4    7    1         0.5792337991E+00      0.1430266212E+01
          0                 3           2             4    7     1      -0.9615584957E-03       4    7    1        -0.5325946822E-01      0.1265127399E+00
          0                 4           1             5    8     1      -0.8120026666E-04       5    8    1        -0.4611250372E-02      0.1104463398E-01

    ------------------------------------------------
       NWT REQUIRED            4 OUTER ITERATIONS 
       AND A TOTAL OF          7 INNER ITERATIONS.
    ------------------------------------------------

 NO OUTPUT CONTROL FOR STRESS PERIOD   44   TIME STEP   18
 
 SOLVING FOR HEAD 
                                                   Max.-Head-Change                         Max.-Flux-Residual
  Residual-Control   Outer-Iter.   Inner-Iter.     Column Row Layer    Maximum-Head-Change  Column Row Layer    Maximum-Flux-Residual          L2-NORM 
          0                 1           2             4    7     1      -0.1141147802E+00       4    7    1        -0.5987892148E+01      0.1288640077E+02
          0                 2           2             4    7     1       0.1062562227E-01       4    7    1         0.5733120906E+00      0.1417205403E+01
          0                 3           2             4    7     1      -0.9543294917E-03       4    7    1        -0.5286354486E-01      0.1255106245E+00
          0                 4           1             5    8     1      -0.8175638141E-04       5    8    1        -0.4643075928E-02      0.1111696626E-01

    ------------------------------------------------
       NWT REQUIRED            4 OUTER ITERATIONS 
       AND A TOTAL OF          7 INNER ITERATIONS.
    ------------------------------------------------

 NO OUTPUT CONTROL FOR STRESS PERIOD   44   TIME STEP   19
 
 SOLVING FOR HEAD 
                                                   Max.-Head-Change                         Max.-Flux-Residual
  Residual-Control   Outer-Iter.   Inner-Iter.     Column Row Layer    Maximum-Head-Change  Column Row Layer    Maximum-Flux-Residual          L2-NORM 
          0                 1           2             4    7     1      -0.1129785841E+00       4    7    1        -0.5928913890E+01      0.1273956473E+02
          0                 2           2             4    7     1       0.1051442575E-01       4    7    1         0.5673780672E+00      0.1404630296E+01
          0                 3           2             4    7     1      -0.9470863645E-03       4    7    1        -0.5246628240E-01      0.1245503864E+00
          0                 4           1             5    8     1      -0.8232006789E-04       5    8    1        -0.4675295866E-02      0.1119183656E-01

    ------------------------------------------------
       NWT REQUIRED            4 OUTER ITERATIONS 
       AND A TOTAL OF          7 INNER ITERATIONS.
    ------------------------------------------------

 NO OUTPUT CONTROL FOR STRESS PERIOD   44   TIME STEP   20
 
 SOLVING FOR HEAD 
                                                   Max.-Head-Change                         Max.-Flux-Residual
  Residual-Control   Outer-Iter.   Inner-Iter.     Column Row Layer    Maximum-Head-Change  Column Row Layer    Maximum-Flux-Residual          L2-NORM 
          0                 1           2             4    7     1      -0.1118425184E+00       4    7    1        -0.5869868029E+01      0.1259745628E+02
          0                 2           2             4    7     1       0.1040323336E-01       4    7    1         0.5614368298E+00      0.1392477056E+01
          0                 3           2             4    7     1      -0.9398435202E-03       4    7    1        -0.5206851476E-01      0.1236020166E+00
          0                 4           1             5    8     1      -0.8284163440E-04       5    8    1        -0.4705100400E-02      0.1126060252E-01

    ------------------------------------------------
       NWT REQUIRED            4 OUTER ITERATIONS 
       AND A TOTAL OF          7 INNER ITERATIONS.
    ------------------------------------------------

 NO OUTPUT CONTROL FOR STRESS PERIOD   44   TIME STEP   21
 
 SOLVING FOR HEAD 
                                                   Max.-Head-Change                         Max.-Flux-Residual
  Residual-Control   Outer-Iter.   Inner-Iter.     Column Row Layer    Maximum-Head-Change  Column Row Layer    Maximum-Flux-Residual          L2-NORM 
          0                 1           2             4    7     1      -0.1107081581E+00       4    7    1        -0.5810842658E+01      0.1245984596E+02
          0                 2           2             4    7     1       0.1029220714E-01       4    7    1         0.5554976619E+00      0.1380757650E+01
          0                 3           2             4    7     1      -0.9326206369E-03       4    7    1        -0.5167136861E-01      0.1226966929E+00
          0                 4           1             5    8     1      -0.8336377284E-04       5    8    1        -0.4734908232E-02      0.1133173757E-01

    ------------------------------------------------
       NWT REQUIRED            4 OUTER ITERATIONS 
       AND A TOTAL OF          7 INNER ITERATIONS.
    ------------------------------------------------

 NO OUTPUT CONTROL FOR STRESS PERIOD   44   TIME STEP   22
 
 SOLVING FOR HEAD 
                                                   Max.-Head-Change                         Max.-Flux-Residual
  Residual-Control   Outer-Iter.   Inner-Iter.     Column Row Layer    Maximum-Head-Change  Column Row Layer    Maximum-Flux-Residual          L2-NORM 
          0                 1           2             4    7     1      -0.1095765912E+00       4    7    1        -0.5751899425E+01      0.1232650318E+02
          0                 2           2             4    7     1       0.1018144403E-01       4    7    1         0.5495662494E+00      0.1369436839E+01
          0                 3           2             4    7     1      -0.9254070287E-03       4    7    1        -0.5127428837E-01      0.1218168273E+00
          0                 4           1             5    8     1      -0.8386289210E-04       5    8    1        -0.4763386654E-02      0.1139987691E-01

    ------------------------------------------------
       NWT REQUIRED            4 OUTER ITERATIONS 
       AND A TOTAL OF          7 INNER ITERATIONS.
    ------------------------------------------------

 NO OUTPUT CONTROL FOR STRESS PERIOD   44   TIME STEP   23
 
 SOLVING FOR HEAD 
                                                   Max.-Head-Change                         Max.-Flux-Residual
  Residual-Control   Outer-Iter.   Inner-Iter.     Column Row Layer    Maximum-Head-Change  Column Row Layer    Maximum-Flux-Residual          L2-NORM 
          0                 1           2             4    7     1      -0.1084489150E+00       4    7    1        -0.5693100632E+01      0.1219721043E+02
          0                 2           2             4    7     1       0.1007106850E-01       4    7    1         0.5436497741E+00      0.1358496274E+01
          0                 3           2             4    7     1      -0.9182457427E-03       4    7    1        -0.5087968406E-01      0.1209665717E+00
          0                 4           1             5    8     1      -0.8433843812E-04       5    8    1        -0.4790506260E-02      0.1146531895E-01

    ------------------------------------------------
       NWT REQUIRED            4 OUTER ITERATIONS 
       AND A TOTAL OF          7 INNER ITERATIONS.
    ------------------------------------------------

 NO OUTPUT CONTROL FOR STRESS PERIOD   44   TIME STEP   24
 
 SOLVING FOR HEAD 
                                                   Max.-Head-Change                         Max.-Flux-Residual
  Residual-Control   Outer-Iter.   Inner-Iter.     Column Row Layer    Maximum-Head-Change  Column Row Layer    Maximum-Flux-Residual          L2-NORM 
          0                 1           2             4    7     1      -0.1073261488E+00       4    7    1        -0.5634504120E+01      0.1207176760E+02
          0                 2           2             4    7     1       0.9961152999E-02       4    7    1         0.5377525877E+00      0.1347912393E+01
          0                 3           2             4    7     1      -0.9110898567E-03       4    7    1        -0.5048499937E-01      0.1201395555E+00
          0                 4           1             5    8     1      -0.8481867091E-04       5    8    1        -0.4817868505E-02      0.1153182104E-01

    ------------------------------------------------
       NWT REQUIRED            4 OUTER ITERATIONS 
       AND A TOTAL OF          7 INNER ITERATIONS.
    ------------------------------------------------

 NO OUTPUT CONTROL FOR STRESS PERIOD   44   TIME STEP   25
 
 SOLVING FOR HEAD 
                                                   Max.-Head-Change                         Max.-Flux-Residual
  Residual-Control   Outer-Iter.   Inner-Iter.     Column Row Layer    Maximum-Head-Change  Column Row Layer    Maximum-Flux-Residual          L2-NORM 
          0                 1           2             4    7     1      -0.1062092169E+00       4    7    1        -0.5576162256E+01      0.1195000133E+02
          0                 2           2             4    7     1       0.9851805210E-02       4    7    1         0.5318808788E+00      0.1337703325E+01
          0                 3           2             4    7     1      -0.9039639870E-03       4    7    1        -0.5009162113E-01      0.1193616215E+00
          0                 4           1             5    8     1      -0.8528671183E-04       5    8    1        -0.4844519897E-02      0.1159785752E-01

    ------------------------------------------------
       NWT REQUIRED            4 OUTER ITERATIONS 
       AND A TOTAL OF          7 INNER ITERATIONS.
    ------------------------------------------------

 NO OUTPUT CONTROL FOR STRESS PERIOD   44   TIME STEP   26
 
 SOLVING FOR HEAD 
                                                   Max.-Head-Change                         Max.-Flux-Residual
  Residual-Control   Outer-Iter.   Inner-Iter.     Column Row Layer    Maximum-Head-Change  Column Row Layer    Maximum-Flux-Residual          L2-NORM 
          0                 1           2             4    7     1      -0.1050990782E+00       4    7    1        -0.5518129793E+01      0.1183172627E+02
          0                 2           2             4    7     1       0.9743136140E-02       4    7    1         0.5260410749E+00      0.1327758021E+01
          0                 3           2             4    7     1      -0.8969102652E-03       4    7    1        -0.4970190667E-01      0.1185579987E+00
          0                 4           1             5    8     1      -0.8574191298E-04       5    8    1        -0.4870425388E-02      0.1166147094E-01

    ------------------------------------------------
       NWT REQUIRED            4 OUTER ITERATIONS 
       AND A TOTAL OF          7 INNER ITERATIONS.
    ------------------------------------------------

 NO OUTPUT CONTROL FOR STRESS PERIOD   44   TIME STEP   27
 
 SOLVING FOR HEAD 
                                                   Max.-Head-Change                         Max.-Flux-Residual
  Residual-Control   Outer-Iter.   Inner-Iter.     Column Row Layer    Maximum-Head-Change  Column Row Layer    Maximum-Flux-Residual          L2-NORM 
          0                 1           2             4    7     1      -0.1040142883E+00       4    7    1        -0.5461378979E+01      0.1171893544E+02
          0                 2           2             4    7     1       0.9636906248E-02       4    7    1         0.5203280117E+00      0.1318415149E+01
          0                 3           2             4    7     1      -0.8900226428E-03       4    7    1        -0.4932106401E-01      0.1179916596E+00
          0                 4           1             5    8     1      -0.8618971956E-04       5    8    1        -0.4895894654E-02      0.1172761049E-01

    ------------------------------------------------
       NWT REQUIRED            4 OUTER ITERATIONS 
       AND A TOTAL OF          7 INNER ITERATIONS.
    ------------------------------------------------

 NO OUTPUT CONTROL FOR STRESS PERIOD   44   TIME STEP   28
 
 SOLVING FOR HEAD 
                                                   Max.-Head-Change                         Max.-Flux-Residual
  Residual-Control   Outer-Iter.   Inner-Iter.     Column Row Layer    Maximum-Head-Change  Column Row Layer    Maximum-Flux-Residual          L2-NORM 
          0                 1           2             4    7     1      -0.1223161222E+00       4    7    1        -0.6416694607E+01      0.1395703128E+02
          0                 2           2             4    7     1       0.1141624321E-01       4    7    1         0.6158089308E+00      0.1403740562E+01
          0                 3           2             4    7     1      -0.1011630778E-02       4    7    1        -0.5602908179E-01      0.1273972108E+00
          0                 4           1             5    8     1      -0.8151344414E-04       5    8    1        -0.4631408682E-02      0.1100134724E-01

    ------------------------------------------------
       NWT REQUIRED            4 OUTER ITERATIONS 
       AND A TOTAL OF          7 INNER ITERATIONS.
    ------------------------------------------------

 NO OUTPUT CONTROL FOR STRESS PERIOD   44   TIME STEP   29
 
 SOLVING FOR HEAD 
                                                   Max.-Head-Change                         Max.-Flux-Residual
  Residual-Control   Outer-Iter.   Inner-Iter.     Column Row Layer    Maximum-Head-Change  Column Row Layer    Maximum-Flux-Residual          L2-NORM 
          0                 1           2             4    7     1      -0.1211291192E+00       4    7    1        -0.6354994397E+01      0.1381070762E+02
          0                 2           2             4    7     1       0.1130006949E-01       4    7    1         0.6096008445E+00      0.1389936589E+01
          0                 3           2             4    7     1      -0.1004066067E-02       4    7    1        -0.5561358822E-01      0.1263755099E+00
          0                 4           1             5    8     1      -0.8210090728E-04       5    8    1        -0.4665000703E-02      0.1107928676E-01

    ------------------------------------------------
       NWT REQUIRED            4 OUTER ITERATIONS 
       AND A TOTAL OF          7 INNER ITERATIONS.
    ------------------------------------------------

 NO OUTPUT CONTROL FOR STRESS PERIOD   44   TIME STEP   30



 STREAM LISTING     PERIOD     44   STEP       30

 LAYER ROW COL. STREAM  RCH.  FLOW INTO     FLOW TO   FLOW OUT OF   OVRLND.     DIRECT     STREAM       STREAM     STREAM     STREAM   STREAMBED  STREAMBED
                SEG.NO.  NO.  STRM. RCH.    AQUIFER    STRM. RCH.    RUNOFF     PRECIP       ET          HEAD       DEPTH      WIDTH   CONDCTNC.   GRADIENT

   1    1    1     1     1    1.3875E+01  1.7894E-01   1.3696E+01  0.000E+00  0.000E+00  0.000E+00  1.09404E+03  9.876E-01  9.972E+00  4.487E-02  1.329E+00
   1    2    2     1     2    1.3696E+01  2.7573E-01   1.3420E+01  0.000E+00  0.000E+00  0.000E+00  1.08904E+03  9.829E-01  9.890E+00  6.923E-02  1.328E+00
   1    3    3     1     3    1.3420E+01  2.3380E-01   1.3186E+01  0.000E+00  0.000E+00  0.000E+00  1.08340E+03  9.775E-01  9.797E+00  5.878E-02  1.326E+00
   1    3    4     1     4    1.3186E+01  2.1419E-01   1.2972E+01  0.000E+00  0.000E+00  0.000E+00  1.07838E+03  9.727E-01  9.714E+00  5.391E-02  1.324E+00
   1    4    5     2     1    1.0972E+01  2.9101E-01   1.0681E+01  0.000E+00  0.000E+00  0.000E+00  1.07266E+03  7.309E-01  1.200E+01  7.800E-02  1.244E+00
   1    5    6     2     2    1.0681E+01  2.2322E-01   1.0458E+01  0.000E+00  0.000E+00  0.000E+00  1.06723E+03  7.204E-01  1.200E+01  6.000E-02  1.240E+00
   1    6    6     2     3    1.0458E+01  2.2267E-01   1.0235E+01  0.000E+00  0.000E+00  0.000E+00  1.06250E+03  7.112E-01  1.200E+01  6.000E-02  1.237E+00
   1    7    6     2     4    1.0235E+01  2.2212E-01   1.0013E+01  0.000E+00  0.000E+00  0.000E+00  1.05778E+03  7.020E-01  1.200E+01  6.000E-02  1.234E+00
   1    8    6     2     5    1.0013E+01  2.2157E-01   9.7913E+00  0.000E+00  0.000E+00  0.000E+00  1.05305E+03  6.928E-01  1.200E+01  6.000E-02  1.231E+00
   1    3    5     3     1    2.0000E+00  2.8252E-01   1.7175E+00  0.000E+00  0.000E+00  0.000E+00  1.07555E+03  1.909E+00  9.636E+00  7.227E-02  1.955E+00
   1    3    6     3     2    1.7175E+00  2.4905E-01   1.4684E+00  0.000E+00  0.000E+00  0.000E+00  1.07264E+03  1.727E+00  8.909E+00  6.682E-02  1.864E+00
   1    3    7     3     3    1.4684E+00  1.9718E-01   1.2712E+00  0.000E+00  0.000E+00  0.000E+00  1.06987E+03  1.555E+00  8.218E+00  5.547E-02  1.777E+00
   1    4    8     3     4    1.2712E+00  2.2567E-01   1.0456E+00  0.000E+00  0.000E+00  0.000E+00  1.06682E+03  1.364E+00  7.455E+00  6.709E-02  1.682E+00
   1    5    8     3     5    1.0456E+00  1.5790E-01   8.8768E-01  0.000E+00  0.000E+00  0.000E+00  1.06362E+03  1.164E+00  6.655E+00  4.991E-02  1.582E+00
   1    6    8     3     6    8.8768E-01  5.5980E-02   8.3170E-01  0.000E+00  0.000E+00  0.000E+00  1.06158E+03  1.036E+00  6.145E+00  1.844E-02  1.518E+00
   1    5   10     4     1    1.0000E+01  9.0919E-02   9.9091E+00  0.000E+00  0.000E+00  0.000E+00  1.07836E+03  6.368E-01  1.000E+01  2.500E-02  1.212E+00
   1    5    9     4     2    9.9091E+00  1.8158E-01   9.7275E+00  0.000E+00  0.000E+00  0.000E+00  1.07154E+03  6.315E-01  1.000E+01  5.000E-02  1.211E+00
   1    6    8     4     3    9.7275E+00  1.2689E-01   9.6006E+00  0.000E+00  0.000E+00  0.000E+00  1.06381E+03  6.256E-01  1.000E+01  3.500E-02  1.209E+00
   1    6    8     5     1    1.0432E+01  2.2686E-01   1.0205E+01  0.000E+00  0.000E+00  0.000E+00  1.05868E+03  6.790E-01  1.542E+01  6.166E-02  1.226E+00
   1    7    7     5     2    1.0205E+01  2.7894E-01   9.9265E+00  0.000E+00  0.000E+00  0.000E+00  1.05417E+03  6.732E-01  1.519E+01  7.594E-02  1.224E+00
   1    8    7     5     3    9.9265E+00  1.9221E-01   9.7343E+00  0.000E+00  0.000E+00  0.000E+00  1.04992E+03  6.676E-01  1.497E+01  5.241E-02  1.223E+00
   1    8    6     5     4    9.7343E+00  1.3577E-01   9.5985E+00  0.000E+00  0.000E+00  0.000E+00  1.04691E+03  6.637E-01  1.482E+01  3.706E-02  1.221E+00
   1    9    6     6     1    9.5985E+00  2.2097E-01   9.3776E+00  0.000E+00  0.000E+00  0.000E+00  1.04341E+03  6.828E-01  1.200E+01  6.000E-02  1.228E+00
   1   10    7     6     2    9.3776E+00  2.2039E-01   9.1572E+00  0.000E+00  0.000E+00  0.000E+00  1.03885E+03  6.732E-01  1.200E+01  6.000E-02  1.224E+00
   1   11    7     6     3    9.1572E+00  2.1981E-01   8.9374E+00  0.000E+00  0.000E+00  0.000E+00  1.03430E+03  6.636E-01  1.200E+01  6.000E-02  1.221E+00
   1   12    7     6     4    8.9374E+00  2.1923E-01   8.7181E+00  0.000E+00  0.000E+00  0.000E+00  1.02974E+03  6.539E-01  1.200E+01  6.000E-02  1.218E+00
   1   13    7     6     5    8.7181E+00 -1.0025E-02   8.7282E+00  0.000E+00  0.000E+00  0.000E+00  1.02656E+03  6.492E-01  1.200E+01  2.400E-01 -1.392E-02
   1   14    9     7     1    1.5000E+02  1.3909E+00   1.4861E+02  0.000E+00  0.000E+00  0.000E+00  1.03987E+03  2.288E+00  5.529E+01  5.593E-01  8.290E-01
   1   13    8     7     2    1.4861E+02  1.9933E+00   1.4662E+02  0.000E+00  0.000E+00  0.000E+00  1.03478E+03  2.279E+00  5.525E+01  6.147E-01  1.081E+00
   1   13    7     7     3    1.4662E+02  1.7242E+00   1.4489E+02  0.000E+00  0.000E+00  0.000E+00  1.02969E+03  2.269E+00  5.521E+01  5.584E-01  1.029E+00
   1   13    6     8     1    1.5362E+02  1.0743E+00   1.5255E+02  0.000E+00  0.000E+00  0.000E+00  1.02471E+03  2.838E+00  4.116E+01  4.194E-01  8.538E-01
   1   13    5     8     2    1.5255E+02  3.2774E-01   1.5222E+02  0.000E+00  0.000E+00  0.000E+00  1.01846E+03  2.834E+00  4.109E+01  4.187E-01  2.609E-01
   1   13    4     8     3    1.5222E+02 -1.8971E+00   1.5411E+02  0.000E+00  0.000E+00  0.000E+00  1.01221E+03  2.839E+00  4.117E+01  4.195E+00 -1.507E-01
   1   13    3     8     4    1.5411E+02 -3.3693E+00   1.5748E+02  0.000E+00  0.000E+00  0.000E+00  1.00598E+03  2.857E+00  4.143E+01  4.222E+00 -2.660E-01
   1   13    2     8     5    1.5748E+02 -2.5114E+00   1.6000E+02  0.000E+00  0.000E+00  0.000E+00  9.99752E+02  2.877E+00  4.172E+01  4.251E+00 -1.969E-01
   1   13    1     8     6    1.6000E+02 -1.9705E+00   1.6197E+02  0.000E+00  0.000E+00  0.000E+00  9.94767E+02  2.892E+00  4.194E+01  2.564E+00 -2.561E-01
   1    8    6     9     1    9.7913E+00  0.0000E+00   9.7913E+00  0.000E+00  0.000E+00  0.000E+00  1.08099E+03  2.238E+00  4.000E+00  0.000E+00  1.746E+00
   1    8    5     9     2    9.7913E+00  0.0000E+00   9.7913E+00  0.000E+00  0.000E+00  0.000E+00  1.08049E+03  2.238E+00  4.000E+00  0.000E+00  1.746E+00





UNSATURATED ZONE PACKAGE VOLUMETRIC BUDGET FOR  TIME STEP    30 STRESS PERIOD   44
  ------------------------------------------------------------------------------



     CUMULATIVE VOLUMES      L**3       RATES FOR THIS TIME STEP      L**3/T
     ------------------                 ------------------------

           IN:                                      IN:
           ---                                      ---
        INFILTRATION =  1924003891.3181          INFILTRATION =          64.1937

          OUT:                                     OUT:
          ----                                     ----
              UZF ET =  1791877394.0819                UZF ET =          64.0881
        UZF RECHARGE =     1239720.7563          UZF RECHARGE =       0.0000E+00

            IN - OUT =   130886776.4800              IN - OUT =           0.1056

          STORAGE:                                 STORAGE:
          --------                                 --------
      STORAGE CHANGE =   130886749.7986        STORAGE CHANGE =           0.1056

 PERCENT DISCREPANCY IS DIFFERENCE BETWEEN IN-OUT MINUS CHANGE IN STORAGE
 DIVIDED BY THE AVERAGE OF IN AND OUT TIMES 100

 PERCENT DISCREPANCY =           0.00     PERCENT DISCREPANCY =           0.00






1
  VOLUMETRIC BUDGET FOR AGRICULTURAL FIELDS AT  END OF TIME STEP   30, STRESS PERIOD  44
  ------------------------------------------------------------------------------

     CUMULATIVE VOLUMES      L**3       RATES FOR THIS TIME STEP      L**3/T
     ------------------                 ------------------------

           IN:                                      IN:
           ---                                      ---
               AG WELLS  =   722210816.0000                 AG WELLS  =          49.9947
      DIVERSION SEGMENTS =   703262720.0000        DIVERSION SEGMENTS =           9.7913
           GW IRRIGATION =           0.0000             GW IRRIGATION =           0.0000
           SW IRRIGATION =           0.0000             SW IRRIGATION =           0.0000
        SYSTEM LOSSES GW =           0.0000          SYSTEM LOSSES GW =           0.0000
        SYSTEM LOSSES SW =           0.0000          SYSTEM LOSSES SW =           0.0000

                TOTAL IN =  1425473536.0000                  TOTAL IN =          59.7860

          OUT:                                     OUT:
          ----                                     ----
               AG WELLS  =           0.0000                 AG WELLS  =           0.0000
      DIVERSION SEGMENTS =           0.0000        DIVERSION SEGMENTS =           0.0000
           GW IRRIGATION =   722210816.0000             GW IRRIGATION =          49.9947
           SW IRRIGATION =   703276096.0000             SW IRRIGATION =           9.7915
        SYSTEM LOSSES GW =           0.0000          SYSTEM LOSSES GW =           0.0000
        SYSTEM LOSSES SW =           0.0000          SYSTEM LOSSES SW =           0.0000

               TOTAL OUT =  1425486848.0000                 TOTAL OUT =          59.7862

                IN - OUT =      -13312.0000                  IN - OUT =      -1.9836E-04

     PERCENT DISCREPANCY =          -0.00         PERCENT DISCREPANCY =          -0.00



1
  VOLUMETRIC BUDGET FOR ENTIRE MODEL AT END OF TIME STEP   30, STRESS PERIOD  44
  ------------------------------------------------------------------------------

     CUMULATIVE VOLUMES      L**3       RATES FOR THIS TIME STEP      L**3/T
     ------------------                 ------------------------

           IN:                                      IN:
           ---                                      ---
             STORAGE     =  1018665408.0000               STORAGE     =          47.9694
       CONSTANT HEAD     =           0.0000         CONSTANT HEAD     =           0.0000
     HEAD DEP BOUNDS     =    32647066.0000       HEAD DEP BOUNDS     =           0.2895
      STREAM LEAKAGE     =  1343899648.0000        STREAM LEAKAGE     =          11.8756
        UZF RECHARGE     =     1239721.0000          UZF RECHARGE     =           0.0000
               GW ET     =           0.0000                 GW ET     =           0.0000
     SURFACE LEAKAGE     =           0.0000       SURFACE LEAKAGE     =           0.0000
           AG WELLS      =           0.0000             AG WELLS      =           0.0000

                TOTAL IN =  2396451840.0000                  TOTAL IN =          60.1345

          OUT:                                     OUT:
          ----                                     ----
             STORAGE     =   504290304.0000               STORAGE     =       9.4091E-02
       CONSTANT HEAD     =           0.0000         CONSTANT HEAD     =           0.0000
     HEAD DEP BOUNDS     =    32582780.0000       HEAD DEP BOUNDS     =           0.2864
      STREAM LEAKAGE     =  1137315712.0000        STREAM LEAKAGE     =           9.7583
        UZF RECHARGE     =           0.0000          UZF RECHARGE     =           0.0000
               GW ET     =           0.0000                 GW ET     =           0.0000
     SURFACE LEAKAGE     =           0.0000       SURFACE LEAKAGE     =           0.0000
           AG WELLS      =   722210816.0000             AG WELLS      =          49.9947

               TOTAL OUT =  2396399616.0000                 TOTAL OUT =          60.1334

                IN - OUT =       52224.0000                  IN - OUT =       1.0567E-03

     PERCENT DISCREPANCY =           0.00         PERCENT DISCREPANCY =           0.00






         TIME SUMMARY AT END OF TIME STEP   30 IN STRESS PERIOD   44
                    SECONDS     MINUTES      HOURS       DAYS        YEARS
                    -----------------------------------------------------------
   TIME STEP LENGTH  87667.      1461.1      24.352      1.0147     2.77799E-03
 STRESS PERIOD TIME 2.63000E+06  43833.      730.56      30.440     8.33397E-02
         TOTAL TIME 1.13175E+08 1.88626E+06  31438.      1309.9      3.5863    
1
1
                            STRESS PERIOD NO.   45, LENGTH =   2630000.    
                            -----------------------------------------------

                              NUMBER OF TIME STEPS =    30

                               MULTIPLIER FOR DELT =     1.000

                            INITIAL TIME STEP SIZE =   87666.66    

 REUSING NON-PARAMETER GHB CELLS FROM LAST STRESS PERIOD

      2 GHB CELLS

 REUSING STREAM SEGMENT DATA FROM LAST STRESS PERIOD



            AREAL INFILTRATION RATE
 READING ON UNIT   19 WITH FORMAT: (10F4.0)            

            1           2           3           4           5           6           7           8           9          10
 ........................................................................................................................
   1   1.2000E-09   0.000       0.000       0.000       0.000       0.000       0.000       0.000       0.000       0.000    
   2   2.1000E-09  2.0000E-09  8.0000E-10  8.5000E-09   0.000       0.000       0.000       0.000       0.000       0.000    
   3   5.0000E-10  1.1000E-09  8.8000E-09  5.5000E-09   0.000       0.000       0.000       0.000       0.000       0.000    
   4   8.5000E-09  1.1000E-09  1.1000E-09  1.1000E-09  2.0000E-09   0.000       0.000       0.000       0.000       0.000    
   5   8.5000E-09  1.1000E-09  1.1000E-09  1.1000E-09  1.1000E-09   0.000       0.000       0.000       0.000       0.000    
   6   8.5000E-09  5.2000E-09  2.1000E-09  1.1000E-09  1.5000E-09   0.000       0.000       0.000       0.000       0.000    
   7   8.5000E-09  5.2000E-09  2.1000E-09  1.2000E-09  2.0000E-09   0.000       0.000       0.000       0.000       0.000    
   8   5.0000E-10  5.2000E-09  2.1000E-09  1.2000E-09  5.0000E-09   0.000       0.000       0.000       0.000       0.000    
   9   5.0000E-10  5.2000E-09  2.1000E-09  1.2000E-09  5.0000E-09   0.000       0.000       0.000       0.000       0.000    
  10   5.0000E-10  5.2000E-09  2.1000E-09  1.2000E-09  5.8000E-09   0.000       0.000       0.000       0.000       0.000    
  11   1.0000E-10  1.1000E-09  1.1000E-09  1.2000E-09  5.0000E-09   0.000       0.000       0.000       0.000       0.000    
  12   1.1000E-09  1.1000E-09  1.1000E-09  1.1000E-09  2.0000E-09   0.000       0.000       0.000       0.000       0.000    
  13   1.1000E-09  2.2000E-09  2.2000E-09  2.1000E-09  1.0000E-09   0.000       0.000       0.000       0.000       0.000    
  14   2.0000E-10  5.5000E-09  5.5000E-09  5.2000E-09  1.0000E-09   0.000       0.000       0.000       0.000       0.000    
  15    0.000      8.8000E-09  8.8000E-09   0.000       0.000       0.000       0.000       0.000       0.000       0.000    

                  ET RATE =  3.250000E-07

 USING ET EXTINCTION DEPTH FROM PREVIOUS STRESS PERIOD. CURRENT PERIOD IS:      45

 USING EXTINCTION WATER CONTENT FROM PREVIOUS STRESS PERIOD. CURRENT PERIOD IS:      45

 USING AIR ENTRY PRESSURE FROM PREVIOUS STRESS PERIOD. CURRENT PERIOD IS:      45

 USING ROOT PRESSURE HEAD FROM PREVIOUS STRESS PERIOD. CURRENT PERIOD IS:      45

 USING ROOT ACTIVITY FROM PREVIOUS STRESS PERIOD. CURRENT PERIOD IS:      45

 PROCESSING AG STRESS PERIOD DATA

 READING AG STRESS PERIOD DATA

 READING IRRIGATION SEGMENT

 READING IRRIGATION WELL

 READING SUPPLEMENTAL WELL

 END PROCESSING AG STRESS PERIOD DATA OPTIONS
 
 SOLVING FOR HEAD 
                                                   Max.-Head-Change                         Max.-Flux-Residual
  Residual-Control   Outer-Iter.   Inner-Iter.     Column Row Layer    Maximum-Head-Change  Column Row Layer    Maximum-Flux-Residual          L2-NORM 
          0                 1           2             4    7     1      -0.8402880618E-01       4    7    1        -0.4418329099E+01      0.9402180214E+01
          0                 2           2             4    7     1       0.7690617419E-02       4    7    1         0.4159032734E+00      0.9843455590E+00
          0                 3           2             4    7     1      -0.7586123755E-03       4    7    1        -0.4207328748E-01      0.9561566237E-01
          0                 4           1             5    8     1      -0.9214709889E-04       5    8    1        -0.5233895422E-02      0.1245662278E-01

    ------------------------------------------------
       NWT REQUIRED            4 OUTER ITERATIONS 
       AND A TOTAL OF          7 INNER ITERATIONS.
    ------------------------------------------------

 NO OUTPUT CONTROL FOR STRESS PERIOD   45   TIME STEP    1
 
 SOLVING FOR HEAD 
                                                   Max.-Head-Change                         Max.-Flux-Residual
  Residual-Control   Outer-Iter.   Inner-Iter.     Column Row Layer    Maximum-Head-Change  Column Row Layer    Maximum-Flux-Residual          L2-NORM 
          0                 1           2             4    7     1      -0.8301347012E-01       4    7    1        -0.4364604421E+01      0.9325882882E+01
          0                 2           2             4    7     1       0.7581309535E-02       4    7    1         0.4099650569E+00      0.9765439295E+00
          0                 3           2             4    7     1      -0.7563120042E-03       4    7    1        -0.4194132776E-01      0.9560610843E-01
          0                 4           1             5    8     1      -0.9456736893E-04       5    8    1        -0.5370683372E-02      0.1279936253E-01

    ------------------------------------------------
       NWT REQUIRED            4 OUTER ITERATIONS 
       AND A TOTAL OF          7 INNER ITERATIONS.
    ------------------------------------------------

 NO OUTPUT CONTROL FOR STRESS PERIOD   45   TIME STEP    2
 
 SOLVING FOR HEAD 
                                                   Max.-Head-Change                         Max.-Flux-Residual
  Residual-Control   Outer-Iter.   Inner-Iter.     Column Row Layer    Maximum-Head-Change  Column Row Layer    Maximum-Flux-Residual          L2-NORM 
          0                 1           2             4    7     1      -0.8201610382E-01       4    7    1        -0.4311826060E+01      0.9251174057E+01
          0                 2           2             4    7     1       0.7473509608E-02       4    7    1         0.4041085915E+00      0.9688844772E+00
          0                 3           2             4    7     1      -0.7541834808E-03       4    7    1        -0.4181890536E-01      0.9561234785E-01
          0                 4           1             5    8     1      -0.9705304166E-04       5    8    1        -0.5511183146E-02      0.1315050238E-01

    ------------------------------------------------
       NWT REQUIRED            4 OUTER ITERATIONS 
       AND A TOTAL OF          7 INNER ITERATIONS.
    ------------------------------------------------

 NO OUTPUT CONTROL FOR STRESS PERIOD   45   TIME STEP    3
 
 SOLVING FOR HEAD 
                                                   Max.-Head-Change                         Max.-Flux-Residual
  Residual-Control   Outer-Iter.   Inner-Iter.     Column Row Layer    Maximum-Head-Change  Column Row Layer    Maximum-Flux-Residual          L2-NORM 
          0                 1           2             4    7     1      -0.7045270951E-01       4    7    1        -0.3707447497E+01      0.7999015659E+01
          0                 2           2             4   13     1      -0.4335322304E-02       4   13    1        -0.2548041137E+00      0.6071737556E+00
          0                 3           2             5    7     1      -0.2861346853E-02       4    7    1        -0.1566553106E+00      0.3676392799E+00
          0                 4           2             4    7     1      -0.1261221351E-02       4    7    1        -0.6997217845E-01      0.1535484495E+00
          0                 5           2             4    7     1      -0.6370009736E-03       4    7    1        -0.3528870270E-01      0.7946020714E-01
          0                 6           2             4    7     1      -0.3182489557E-03       4    7    1        -0.1763613346E-01      0.3947086607E-01
          0                 7           2             4    7     1      -0.1591332413E-03       4    7    1        -0.8817839914E-02      0.1976091006E-01
          0                 8           1             4    7     1      -0.7955685481E-04       4    7    1        -0.4408398579E-02      0.9876710354E-02

    ------------------------------------------------
       NWT REQUIRED            8 OUTER ITERATIONS 
       AND A TOTAL OF         15 INNER ITERATIONS.
    ------------------------------------------------

 NO OUTPUT CONTROL FOR STRESS PERIOD   45   TIME STEP    4
 
 SOLVING FOR HEAD 
                                                   Max.-Head-Change                         Max.-Flux-Residual
  Residual-Control   Outer-Iter.   Inner-Iter.     Column Row Layer    Maximum-Head-Change  Column Row Layer    Maximum-Flux-Residual          L2-NORM 
          0                 1           2             4    7     1      -0.6911143153E-01       4    7    1        -0.3636736393E+01      0.7890056225E+01
          0                 2           2             4   13     1      -0.4335654839E-02       4   13    1        -0.2548235418E+00      0.6129740105E+00
          0                 3           2             5    7     1      -0.2929601086E-02       4    7    1        -0.1606916986E+00      0.3767522779E+00
          0                 4           2             4    7     1      -0.1305781774E-02       4    7    1        -0.7243929811E-01      0.1591554432E+00
          0                 5           2             4    7     1      -0.6589570670E-03       4    7    1        -0.3650554476E-01      0.8217473733E-01
          0                 6           2             4    7     1      -0.3292185484E-03       4    7    1        -0.1824391570E-01      0.4083369532E-01
          0                 7           2             4    7     1      -0.1646312959E-03       4    7    1        -0.9122474713E-02      0.2044350504E-01
          0                 8           1             4    7     1      -0.8229666958E-04       4    7    1        -0.4560206575E-02      0.1021674078E-01

    ------------------------------------------------
       NWT REQUIRED            8 OUTER ITERATIONS 
       AND A TOTAL OF         15 INNER ITERATIONS.
    ------------------------------------------------

 NO OUTPUT CONTROL FOR STRESS PERIOD   45   TIME STEP    5
 
 SOLVING FOR HEAD 
                                                   Max.-Head-Change                         Max.-Flux-Residual
  Residual-Control   Outer-Iter.   Inner-Iter.     Column Row Layer    Maximum-Head-Change  Column Row Layer    Maximum-Flux-Residual          L2-NORM 
          0                 1           2             4    7     1      -0.6778763942E-01       4    7    1        -0.3566947794E+01      0.7783085450E+01
          0                 2           2             4   13     1      -0.4336011012E-02       4   13    1        -0.2548444246E+00      0.6211912251E+00
          0                 3           2             5    7     1      -0.2998023018E-02       4    7    1        -0.1647337087E+00      0.3858802888E+00
          0                 4           2             4    7     1      -0.1350312218E-02       4    7    1        -0.7490477454E-01      0.1647579822E+00
          0                 5           2             4    7     1      -0.6808885403E-03       4    7    1        -0.3772101655E-01      0.8488617972E-01
          0                 6           2             4    7     1      -0.3402064768E-03       4    7    1        -0.1885270385E-01      0.4219913154E-01
          0                 7           2             4    7     1      -0.1699384653E-03       4    7    1        -0.9416580488E-02      0.2110019265E-01
          0                 8           1             4    7     1      -0.8514803193E-04       4    7    1        -0.4718139341E-02      0.1057308717E-01

    ------------------------------------------------
       NWT REQUIRED            8 OUTER ITERATIONS 
       AND A TOTAL OF         15 INNER ITERATIONS.
    ------------------------------------------------

 NO OUTPUT CONTROL FOR STRESS PERIOD   45   TIME STEP    6
 
 SOLVING FOR HEAD 
                                                   Max.-Head-Change                         Max.-Flux-Residual
  Residual-Control   Outer-Iter.   Inner-Iter.     Column Row Layer    Maximum-Head-Change  Column Row Layer    Maximum-Flux-Residual          L2-NORM 
          0                 1           2             4    7     1      -0.6648178772E-01       4    7    1        -0.3498106812E+01      0.7678214249E+01
          0                 2           2             4   13     1      -0.4336319565E-02       4   13    1        -0.2548625693E+00      0.6316214153E+00
          0                 3           2             5    7     1      -0.3066502042E-02       4    7    1        -0.1687753480E+00      0.3950085980E+00
          0                 4           2             4    7     1      -0.1394782546E-02       4    7    1        -0.7736692993E-01      0.1703526168E+00
          0                 5           2             4    7     1      -0.7027879813E-03       4    7    1        -0.3893470636E-01      0.8759366675E-01
          0                 6           2             4    7     1      -0.3511698268E-03       4    7    1        -0.1946012965E-01      0.4356141584E-01
          0                 7           2             4    7     1      -0.1755923988E-03       4    7    1        -0.9729811808E-02      0.2180383851E-01
          0                 8           1             4    7     1      -0.8778640662E-04       4    7    1        -0.4864372746E-02      0.1089840314E-01

    ------------------------------------------------
       NWT REQUIRED            8 OUTER ITERATIONS 
       AND A TOTAL OF         15 INNER ITERATIONS.
    ------------------------------------------------

 NO OUTPUT CONTROL FOR STRESS PERIOD   45   TIME STEP    7
 
 SOLVING FOR HEAD 
                                                   Max.-Head-Change                         Max.-Flux-Residual
  Residual-Control   Outer-Iter.   Inner-Iter.     Column Row Layer    Maximum-Head-Change  Column Row Layer    Maximum-Flux-Residual          L2-NORM 
          0                 1           2             4    7     1      -0.6519337208E-01       4    7    1        -0.3430187115E+01      0.7575301159E+01
          0                 2           2             4   13     1      -0.4336628260E-02       4   13    1        -0.2548807940E+00      0.6441363262E+00
          0                 3           2             4    7     1      -0.3301560939E-02       4    7    1        -0.1726446977E+00      0.4040660050E+00
          0                 4           2             4    7     1      -0.1325862564E-02       5    8    1        -0.7060577147E-01      0.1715590681E+00
          0                 5           2             4    7     1      -0.6954276072E-03       4    7    1        -0.3630808973E-01      0.8872683075E-01
          0                 6           2             4    7     1      -0.3444687403E-03       5    8    1        -0.1799600772E-01      0.4406814942E-01
          0                 7           2             4    7     1      -0.1725634437E-03       4    7    1        -0.9008724017E-02      0.2206420208E-01
          0                 8           1             4    7     1      -0.8624881541E-04       4    7    1        -0.4502624351E-02      0.1102908735E-01

    ------------------------------------------------
       NWT REQUIRED            8 OUTER ITERATIONS 
       AND A TOTAL OF         15 INNER ITERATIONS.
    ------------------------------------------------

 NO OUTPUT CONTROL FOR STRESS PERIOD   45   TIME STEP    8
 
 SOLVING FOR HEAD 
                                                   Max.-Head-Change                         Max.-Flux-Residual
  Residual-Control   Outer-Iter.   Inner-Iter.     Column Row Layer    Maximum-Head-Change  Column Row Layer    Maximum-Flux-Residual          L2-NORM 
          0                 1           2             4    7     1      -0.6392195617E-01       4    7    1        -0.3363165897E+01      0.7474312904E+01
          0                 2           2             4   13     1      -0.4336925214E-02       4   13    1        -0.2548983834E+00      0.6585865663E+00
          0                 3           2             4    7     1      -0.3368828064E-02       4    7    1        -0.1761498288E+00      0.4129745718E+00
          0                 4           2             4    7     1      -0.1369119958E-02       5    8    1        -0.7283814529E-01      0.1770541815E+00
          0                 5           2             4    7     1      -0.7160847873E-03       4    7    1        -0.3738636485E-01      0.9137168466E-01
          0                 6           2             4    7     1      -0.3548990491E-03       5    8    1        -0.1854020339E-01      0.4540145509E-01
          0                 7           2             4    7     1      -0.1777684262E-03       4    7    1        -0.9280431012E-02      0.2272976736E-01
          0                 8           1             4    7     1      -0.8884318988E-04       4    7    1        -0.4638054466E-02      0.1136081075E-01

    ------------------------------------------------
       NWT REQUIRED            8 OUTER ITERATIONS 
       AND A TOTAL OF         15 INNER ITERATIONS.
    ------------------------------------------------

 NO OUTPUT CONTROL FOR STRESS PERIOD   45   TIME STEP    9
 
 SOLVING FOR HEAD 
                                                   Max.-Head-Change                         Max.-Flux-Residual
  Residual-Control   Outer-Iter.   Inner-Iter.     Column Row Layer    Maximum-Head-Change  Column Row Layer    Maximum-Flux-Residual          L2-NORM 
          0                 1           2             4    7     1      -0.6266746053E-01       4    7    1        -0.3297039758E+01      0.7375227939E+01
          0                 2           2             4   13     1      -0.4337175393E-02       4   13    1        -0.2549132278E+00      0.6748148656E+00
          0                 3           2             4    7     1      -0.3436132203E-02       4    7    1        -0.1796569884E+00      0.4218853354E+00
          0                 4           2             4    7     1      -0.1412300742E-02       5    8    1        -0.7506721549E-01      0.1825403281E+00
          0                 5           2             4    7     1      -0.7367314418E-03       4    7    1        -0.3846408790E-01      0.9401510921E-01
          0                 6           2             4    7     1      -0.3653213174E-03       5    8    1        -0.1908398456E-01      0.4673373580E-01
          0                 7           2             4    7     1      -0.1829559651E-03       4    7    1        -0.9551226479E-02      0.2339309909E-01
          0                 8           1             4    7     1      -0.9145758673E-04       4    7    1        -0.4774529401E-02      0.1169509354E-01

    ------------------------------------------------
       NWT REQUIRED            8 OUTER ITERATIONS 
       AND A TOTAL OF         15 INNER ITERATIONS.
    ------------------------------------------------

 NO OUTPUT CONTROL FOR STRESS PERIOD   45   TIME STEP   10
 
 SOLVING FOR HEAD 
                                                   Max.-Head-Change                         Max.-Flux-Residual
  Residual-Control   Outer-Iter.   Inner-Iter.     Column Row Layer    Maximum-Head-Change  Column Row Layer    Maximum-Flux-Residual          L2-NORM 
          0                 1           2             4    7     1      -0.6142954572E-01       4    7    1        -0.3231791251E+01      0.7278018189E+01
          0                 2           2             4   13     1      -0.4337386451E-02       4   13    1        -0.2549258907E+00      0.6926635472E+00
          0                 3           2             4    7     1      -0.3503497357E-02       4    7    1        -0.1831674326E+00      0.4307954943E+00
          0                 4           2             4    7     1      -0.1455411647E-02       5    8    1        -0.7729329491E-01      0.1880182191E+00
          0                 5           2             4    7     1      -0.7573486286E-03       4    7    1        -0.3954027010E-01      0.9665468342E-01
          0                 6           2             4    7     1      -0.3757009022E-03       5    8    1        -0.1962554243E-01      0.4806059496E-01
          0                 7           2             4    7     1      -0.1881477925E-03       4    7    1        -0.9822244992E-02      0.2405703811E-01
          0                 8           1             4    7     1      -0.9404416324E-04       4    7    1        -0.4909551538E-02      0.1202581858E-01

    ------------------------------------------------
       NWT REQUIRED            8 OUTER ITERATIONS 
       AND A TOTAL OF         15 INNER ITERATIONS.
    ------------------------------------------------

 NO OUTPUT CONTROL FOR STRESS PERIOD   45   TIME STEP   11
 
 SOLVING FOR HEAD 
                                                   Max.-Head-Change                         Max.-Flux-Residual
  Residual-Control   Outer-Iter.   Inner-Iter.     Column Row Layer    Maximum-Head-Change  Column Row Layer    Maximum-Flux-Residual          L2-NORM 
          0                 1           2             4    7     1      -0.6020785234E-01       4    7    1        -0.3167401836E+01      0.7182649601E+01
          0                 2           2             4   13     1      -0.4337643425E-02       4   13    1        -0.2549413079E+00      0.7119893101E+00
          0                 3           2             4    7     1      -0.3570887958E-02       4    7    1        -0.1866793075E+00      0.4397030844E+00
          0                 4           2             4    7     1      -0.1498447092E-02       5    8    1        -0.7951607173E-01      0.1934872089E+00
          0                 5           2             4    7     1      -0.7779095016E-03       4    7    1        -0.4061351008E-01      0.9928697517E-01
          0                 6           2             4    7     1      -0.3860861577E-03       5    8    1        -0.2016740112E-01      0.4938811583E-01
          0                 7           2             4    7     1      -0.1933390724E-03       4    7    1        -0.1009323407E-01      0.2472078094E-01
          0                 8           1             4    7     1      -0.9663080427E-04       4    7    1        -0.5044576609E-02      0.1235654925E-01

    ------------------------------------------------
       NWT REQUIRED            8 OUTER ITERATIONS 
       AND A TOTAL OF         15 INNER ITERATIONS.
    ------------------------------------------------

 NO OUTPUT CONTROL FOR STRESS PERIOD   45   TIME STEP   12
 
 SOLVING FOR HEAD 
                                                   Max.-Head-Change                         Max.-Flux-Residual
  Residual-Control   Outer-Iter.   Inner-Iter.     Column Row Layer    Maximum-Head-Change  Column Row Layer    Maximum-Flux-Residual          L2-NORM 
          0                 1           2             4    7     1      -0.5900232197E-01       4    7    1        -0.3103868827E+01      0.7089107321E+01
          0                 2           2             4   13     1      -0.4337842675E-02       4   13    1        -0.2549533662E+00      0.7326461619E+00
          0                 3           2             4    7     1      -0.3638333559E-02       4    7    1        -0.1901941601E+00      0.4486123404E+00
          0                 4           2             4    7     1      -0.1541367581E-02       5    8    1        -0.8173346381E-01      0.1989422447E+00
          0                 5           2             4    7     1      -0.7984636785E-03       4    7    1        -0.4168639825E-01      0.1019183296E+00
          0                 6           2             4    7     1      -0.3964447195E-03       5    8    1        -0.2070787083E-01      0.5071225987E-01
          0                 7           2             4    7     1      -0.1985056388E-03       4    7    1        -0.1036293216E-01      0.2538142249E-01
          0                 8           1             4    7     1      -0.9923819339E-04       4    7    1        -0.5180684442E-02      0.1268993312E-01

    ------------------------------------------------
       NWT REQUIRED            8 OUTER ITERATIONS 
       AND A TOTAL OF         15 INNER ITERATIONS.
    ------------------------------------------------

 NO OUTPUT CONTROL FOR STRESS PERIOD   45   TIME STEP   13
 
 SOLVING FOR HEAD 
                                                   Max.-Head-Change                         Max.-Flux-Residual
  Residual-Control   Outer-Iter.   Inner-Iter.     Column Row Layer    Maximum-Head-Change  Column Row Layer    Maximum-Flux-Residual          L2-NORM 
          0                 1           2             4    7     1      -0.5781233345E-01       4    7    1        -0.3041159168E+01      0.6997368981E+01
          0                 2           2             4   13     1      -0.4338041829E-02       4   13    1        -0.2549654664E+00      0.7545005226E+00
          0                 3           2             4    7     1      -0.3705829772E-02       4    7    1        -0.1937117551E+00      0.4575227045E+00
          0                 4           2             4    7     1      -0.1584228356E-02       5    8    1        -0.8394832356E-01      0.2043903450E+00
          0                 5           2             4    7     1      -0.8189782325E-03       4    7    1        -0.4275721562E-01      0.1045445401E+00
          0                 6           2             4    7     1      -0.4068072808E-03       5    8    1        -0.2124855371E-01      0.5203691837E-01
          0                 7           2             4    7     1      -0.2036718240E-03       4    7    1        -0.1063260954E-01      0.2604201253E-01
          0                 8           1             4    7     1      -0.1018090948E-03       4    7    1        -0.5314887003E-02      0.1301865003E-01
          0                 9           1             4    7     1      -0.5090722834E-04       4    7    1        -0.2657585287E-02      0.6509560776E-02

    ------------------------------------------------
       NWT REQUIRED            9 OUTER ITERATIONS 
       AND A TOTAL OF         16 INNER ITERATIONS.
    ------------------------------------------------

 NO OUTPUT CONTROL FOR STRESS PERIOD   45   TIME STEP   14
 
 SOLVING FOR HEAD 
                                                   Max.-Head-Change                         Max.-Flux-Residual
  Residual-Control   Outer-Iter.   Inner-Iter.     Column Row Layer    Maximum-Head-Change  Column Row Layer    Maximum-Flux-Residual          L2-NORM 
          0                 1           2             4    7     1      -0.5662350048E-01       4    7    1        -0.2978523602E+01      0.6905979546E+01
          0                 2           2             5    8     1      -0.4538497057E-02       4   13    1        -0.2549757039E+00      0.7781081610E+00
          0                 3           2             4    7     1      -0.3775966538E-02       4    7    1        -0.1973673175E+00      0.4667630814E+00
          0                 4           2             4    7     1      -0.1628487614E-02       5    8    1        -0.8623681790E-01      0.2100180673E+00
          0                 5           2             4    7     1      -0.8402024748E-03       4    7    1        -0.4386507982E-01      0.1072614137E+00
          0                 6           2             4    7     1      -0.4175099406E-03       5    8    1        -0.2180699509E-01      0.5340506952E-01
          0                 7           2             4    7     1      -0.2090049663E-03       4    7    1        -0.1091100203E-01      0.2672394886E-01
          0                 8           1             4    7     1      -0.1044820517E-03       4    7    1        -0.5454416927E-02      0.1336041614E-01
          0                 9           1             4    7     1      -0.5224763495E-04       4    7    1        -0.2727555297E-02      0.6680948025E-02

    ------------------------------------------------
       NWT REQUIRED            9 OUTER ITERATIONS 
       AND A TOTAL OF         16 INNER ITERATIONS.
    ------------------------------------------------

 NO OUTPUT CONTROL FOR STRESS PERIOD   45   TIME STEP   15
 
 SOLVING FOR HEAD 
                                                   Max.-Head-Change                         Max.-Flux-Residual
  Residual-Control   Outer-Iter.   Inner-Iter.     Column Row Layer    Maximum-Head-Change  Column Row Layer    Maximum-Flux-Residual          L2-NORM 
          0                 1           2             4    7     1      -0.5544862702E-01       4    7    1        -0.2916629348E+01      0.6816262168E+01
          0                 2           2             5    8     1      -0.4814215626E-02       5    8    1        -0.2636228884E+00      0.8027937384E+00
          0                 3           2             4    7     1      -0.3846381058E-02       4    7    1        -0.2010374864E+00      0.4760333856E+00
          0                 4           2             4    7     1      -0.1672801453E-02       5    8    1        -0.8852870987E-01      0.2156534299E+00
          0                 5           2             4    7     1      -0.8614487367E-03       4    7    1        -0.4497409131E-01      0.1099810248E+00
          0                 6           2             4    7     1      -0.4282104365E-03       5    8    1        -0.2236532740E-01      0.5477294696E-01
          0                 7           2             4    7     1      -0.2143566116E-03       4    7    1        -0.1119035965E-01      0.2740824871E-01
          0                 8           1             4    7     1      -0.1071440339E-03       4    7    1        -0.5593373502E-02      0.1370077789E-01
          0                 9           1             4    7     1      -0.5358914380E-04       4    7    1        -0.2797582640E-02      0.6852475735E-02

    ------------------------------------------------
       NWT REQUIRED            9 OUTER ITERATIONS 
       AND A TOTAL OF         16 INNER ITERATIONS.
    ------------------------------------------------

 NO OUTPUT CONTROL FOR STRESS PERIOD   45   TIME STEP   16
 
 SOLVING FOR HEAD 
                                                   Max.-Head-Change                         Max.-Flux-Residual
  Residual-Control   Outer-Iter.   Inner-Iter.     Column Row Layer    Maximum-Head-Change  Column Row Layer    Maximum-Flux-Residual          L2-NORM 
          0                 1           2             4    7     1      -0.5428800631E-01       4    7    1        -0.2855491109E+01      0.6728275268E+01
          0                 2           2             5    8     1      -0.5089398120E-02       5    8    1        -0.2783256613E+00      0.8284103752E+00
          0                 3           2             4    7     1      -0.3916884446E-02       4    7    1        -0.2047123953E+00      0.4853100652E+00
          0                 4           2             4    7     1      -0.1717070019E-02       5    8    1        -0.9081875125E-01      0.2212836738E+00
          0                 5           2             4    7     1      -0.8826813332E-03       4    7    1        -0.4608238717E-01      0.1126988160E+00
          0                 6           2             4    7     1      -0.4389214694E-03       5    8    1        -0.2292421341E-01      0.5614217427E-01
          0                 7           2             4    7     1      -0.2197072226E-03       4    7    1        -0.1146966246E-01      0.2809241322E-01
          0                 8           1             4    7     1      -0.1098243962E-03       4    7    1        -0.5733289200E-02      0.1404348909E-01
          0                 9           1             4    7     1      -0.5491968565E-04       4    7    1        -0.2867037239E-02      0.7022600445E-02

    ------------------------------------------------
       NWT REQUIRED            9 OUTER ITERATIONS 
       AND A TOTAL OF         16 INNER ITERATIONS.
    ------------------------------------------------

 NO OUTPUT CONTROL FOR STRESS PERIOD   45   TIME STEP   17
 
 SOLVING FOR HEAD 
                                                   Max.-Head-Change                         Max.-Flux-Residual
  Residual-Control   Outer-Iter.   Inner-Iter.     Column Row Layer    Maximum-Head-Change  Column Row Layer    Maximum-Flux-Residual          L2-NORM 
          0                 1           2             4    7     1      -0.5332550480E-01       4    7    1        -0.2804707574E+01      0.6659978448E+01
          0                 2           2             5    8     1      -0.5255462519E-02       5    8    1        -0.2871853911E+00      0.8449505557E+00
          0                 3           2             4    7     1      -0.3952742566E-02       4    7    1        -0.2065787806E+00      0.4901675182E+00
          0                 4           2             4    7     1      -0.1742095983E-02       5    8    1        -0.9210479345E-01      0.2244540746E+00
          0                 5           2             4    7     1      -0.8945850993E-03       4    7    1        -0.4670367796E-01      0.1142236552E+00
          0                 6           2             4    7     1      -0.4449388417E-03       5    8    1        -0.2323808599E-01      0.5691122354E-01
          0                 7           2             4    7     1      -0.2226956579E-03       4    7    1        -0.1162564929E-01      0.2847452301E-01
          0                 8           2             4    7     1      -0.1113343395E-03       4    7    1        -0.5812103915E-02      0.1423653751E-01
          0                 9           1             4    7     1      -0.5566395209E-04       4    7    1        -0.2905885608E-02      0.7117757210E-02

    ------------------------------------------------
       NWT REQUIRED            9 OUTER ITERATIONS 
       AND A TOTAL OF         17 INNER ITERATIONS.
    ------------------------------------------------

 NO OUTPUT CONTROL FOR STRESS PERIOD   45   TIME STEP   18
 
 SOLVING FOR HEAD 
                                                   Max.-Head-Change                         Max.-Flux-Residual
  Residual-Control   Outer-Iter.   Inner-Iter.     Column Row Layer    Maximum-Head-Change  Column Row Layer    Maximum-Flux-Residual          L2-NORM 
          0                 1           2             4    7     1      -0.5260041125E-01       4    7    1        -0.2766329725E+01      0.6614731329E+01
          0                 2           2             5    8     1      -0.5291128285E-02       5    8    1        -0.2890623188E+00      0.8497944861E+00
          0                 3           2             4    7     1      -0.3945979455E-02       4    7    1        -0.2062202744E+00      0.4895890657E+00
          0                 4           2             4    7     1      -0.1743068490E-02       5    8    1        -0.9213569628E-01      0.2245494925E+00
          0                 5           2             4    7     1      -0.8946450822E-03       4    7    1        -0.4670667578E-01      0.1142339616E+00
          0                 6           2             4    7     1      -0.4450251608E-03       5    8    1        -0.2324235273E-01      0.5692187263E-01
          0                 7           2             4    7     1      -0.2227423191E-03       4    7    1        -0.1162806347E-01      0.2848046604E-01
          0                 8           2             4    7     1      -0.1113390516E-03       4    7    1        -0.5812339331E-02      0.1423711116E-01
          0                 9           1             4    7     1      -0.5566360318E-04       4    7    1        -0.2905862076E-02      0.7117699856E-02

    ------------------------------------------------
       NWT REQUIRED            9 OUTER ITERATIONS 
       AND A TOTAL OF         17 INNER ITERATIONS.
    ------------------------------------------------

 NO OUTPUT CONTROL FOR STRESS PERIOD   45   TIME STEP   19
 
 SOLVING FOR HEAD 
                                                   Max.-Head-Change                         Max.-Flux-Residual
  Residual-Control   Outer-Iter.   Inner-Iter.     Column Row Layer    Maximum-Head-Change  Column Row Layer    Maximum-Flux-Residual          L2-NORM 
          0                 1           2             4    7     1      -0.5188846324E-01       4    7    1        -0.2728649944E+01      0.6570493944E+01
          0                 2           2             5    8     1      -0.5326391941E-02       5    8    1        -0.2909184479E+00      0.8545809284E+00
          0                 3           2             4    7     1      -0.3939381522E-02       4    7    1        -0.2058705071E+00      0.4890257061E+00
          0                 4           2             4    7     1      -0.1744051840E-02       5    8    1        -0.9216763162E-01      0.2246469251E+00
          0                 5           2             4    7     1      -0.8946948247E-03       4    7    1        -0.4670914096E-01      0.1142428994E+00
          0                 6           2             4    7     1      -0.4450850919E-03       5    8    1        -0.2324524698E-01      0.5692915461E-01
          0                 7           2             4    7     1      -0.2227642112E-03       4    7    1        -0.1162918483E-01      0.2848324178E-01
          0                 8           2             4    7     1      -0.1113736405E-03       4    7    1        -0.5814134542E-02      0.1424150559E-01
          0                 9           1             4    7     1      -0.5568766749E-04       4    7    1        -0.2907113054E-02      0.7120764358E-02

    ------------------------------------------------
       NWT REQUIRED            9 OUTER ITERATIONS 
       AND A TOTAL OF         17 INNER ITERATIONS.
    ------------------------------------------------

 NO OUTPUT CONTROL FOR STRESS PERIOD   45   TIME STEP   20
 
 SOLVING FOR HEAD 
                                                   Max.-Head-Change                         Max.-Flux-Residual
  Residual-Control   Outer-Iter.   Inner-Iter.     Column Row Layer    Maximum-Head-Change  Column Row Layer    Maximum-Flux-Residual          L2-NORM 
          0                 1           2             4    7     1      -0.5118955578E-01       4    7    1        -0.2691662817E+01      0.6527243366E+01
          0                 2           2             5    8     1      -0.5361267024E-02       5    8    1        -0.2927544830E+00      0.8593078612E+00
          0                 3           2             4    7     1      -0.3932893825E-02       4    7    1        -0.2055266114E+00      0.4884699367E+00
          0                 4           2             4    7     1      -0.1745014990E-02       5    8    1        -0.9219898555E-01      0.2247424041E+00
          0                 5           2             4    7     1      -0.8947739690E-03       4    7    1        -0.4671314296E-01      0.1142555366E+00
          0                 6           2             4    7     1      -0.4451512059E-03       5    8    1        -0.2324846918E-01      0.5693723462E-01
          0                 7           2             4    7     1      -0.2227946141E-03       4    7    1        -0.1163075074E-01      0.2848710574E-01
          0                 8           2             4    7     1      -0.1113891074E-03       4    7    1        -0.5814931622E-02      0.1424345517E-01
          0                 9           1             4    7     1      -0.5569537404E-04       4    7    1        -0.2907510178E-02      0.7121737412E-02

    ------------------------------------------------
       NWT REQUIRED            9 OUTER ITERATIONS 
       AND A TOTAL OF         17 INNER ITERATIONS.
    ------------------------------------------------

 NO OUTPUT CONTROL FOR STRESS PERIOD   45   TIME STEP   21
 
 SOLVING FOR HEAD 
                                                   Max.-Head-Change                         Max.-Flux-Residual
  Residual-Control   Outer-Iter.   Inner-Iter.     Column Row Layer    Maximum-Head-Change  Column Row Layer    Maximum-Flux-Residual          L2-NORM 
          0                 1           2             4    7     1      -0.5050323670E-01       4    7    1        -0.2655344116E+01      0.6484947509E+01
          0                 2           2             5    8     1      -0.5395621189E-02       5    8    1        -0.2945682328E+00      0.8640189758E+00
          0                 3           2             4    7     1      -0.3926523728E-02       4    7    1        -0.2051889649E+00      0.4879238826E+00
          0                 4           2             4    7     1      -0.1745975474E-02       5    8    1        -0.9223060734E-01      0.2248381226E+00
          0                 5           2             4    7     1      -0.8948442252E-03       4    7    1        -0.4671668282E-01      0.1142669827E+00
          0                 6           2             4    7     1      -0.4452273332E-03       5    8    1        -0.2325221880E-01      0.5694660194E-01
          0                 7           2             4    7     1      -0.2228331441E-03       4    7    1        -0.1163274114E-01      0.2849200904E-01
          0                 8           2             4    7     1      -0.1113946247E-03       4    7    1        -0.5815209422E-02      0.1424413284E-01
          0                 9           1             4    7     1      -0.5571320883E-04       4    7    1        -0.2908436087E-02      0.7124005677E-02

    ------------------------------------------------
       NWT REQUIRED            9 OUTER ITERATIONS 
       AND A TOTAL OF         17 INNER ITERATIONS.
    ------------------------------------------------

 NO OUTPUT CONTROL FOR STRESS PERIOD   45   TIME STEP   22
 
 SOLVING FOR HEAD 
                                                   Max.-Head-Change                         Max.-Flux-Residual
  Residual-Control   Outer-Iter.   Inner-Iter.     Column Row Layer    Maximum-Head-Change  Column Row Layer    Maximum-Flux-Residual          L2-NORM 
          0                 1           2             4    7     1      -0.4982933529E-01       4    7    1        -0.2619684912E+01      0.6443539726E+01
          0                 2           2             5    8     1      -0.5429724836E-02       5    8    1        -0.2963604313E+00      0.8685211637E+00
          0                 3           2             4    7     1      -0.3920313351E-02       4    7    1        -0.2048597676E+00      0.4873910963E+00
          0                 4           2             4    7     1      -0.1746910811E-02       5    8    1        -0.9226141074E-01      0.2249312306E+00
          0                 5           2             4    7     1      -0.8948987080E-03       4    7    1        -0.4671940108E-01      0.1142763526E+00
          0                 6           2             4    7     1      -0.4452958927E-03       5    8    1        -0.2325557887E-01      0.5695500888E-01
          0                 7           2             4    7     1      -0.2228724269E-03       4    7    1        -0.1163477106E-01      0.2849700846E-01
          0                 8           2             4    7     1      -0.1114091981E-03       4    7    1        -0.5815960089E-02      0.1424596905E-01
          0                 9           1             4    7     1      -0.5572100292E-04       4    7    1        -0.2908837866E-02      0.7124990337E-02

    ------------------------------------------------
       NWT REQUIRED            9 OUTER ITERATIONS 
       AND A TOTAL OF         17 INNER ITERATIONS.
    ------------------------------------------------

 NO OUTPUT CONTROL FOR STRESS PERIOD   45   TIME STEP   23
 
 SOLVING FOR HEAD 
                                                   Max.-Head-Change                         Max.-Flux-Residual
  Residual-Control   Outer-Iter.   Inner-Iter.     Column Row Layer    Maximum-Head-Change  Column Row Layer    Maximum-Flux-Residual          L2-NORM 
          0                 1           2             4    7     1      -0.3841996059E-01       4    7    1        -0.2023603902E+01      0.5470229989E+01
          0                 2           2             5    8     1      -0.1202186621E-01       5    8    1        -0.6493739135E+00      0.1604157595E+01
          0                 3           2             4    7     1      -0.5788081577E-02       4    7    1        -0.3023589970E+00      0.7258774943E+00
          0                 4           2             4    7     1      -0.2834005625E-02       5    8    1        -0.1489917429E+00      0.3639088420E+00
          0                 5           2             4    7     1      -0.1423216389E-02       4    7    1        -0.7429931781E-01      0.1818341137E+00
          0                 6           2             4    7     1      -0.7110370797E-03       5    8    1        -0.3712734841E-01      0.9093474365E-01
          0                 7           2             4    7     1      -0.3555802195E-03       4    7    1        -0.1856256474E-01      0.4546620663E-01
          0                 8           2             4    7     1      -0.1777793750E-03       4    7    1        -0.9280707086E-02      0.2273263507E-01
          0                 9           1             4    7     1      -0.8890903036E-04       4    7    1        -0.4641364740E-02      0.1136870044E-01

    ------------------------------------------------
       NWT REQUIRED            9 OUTER ITERATIONS 
       AND A TOTAL OF         17 INNER ITERATIONS.
    ------------------------------------------------

 NO OUTPUT CONTROL FOR STRESS PERIOD   45   TIME STEP   24
 
 SOLVING FOR HEAD 
                                                   Max.-Head-Change                         Max.-Flux-Residual
  Residual-Control   Outer-Iter.   Inner-Iter.     Column Row Layer    Maximum-Head-Change  Column Row Layer    Maximum-Flux-Residual          L2-NORM 
          0                 1           2             4    7     1      -0.3770873922E-01       4    7    1        -0.1986018937E+01      0.5433728248E+01
          0                 2           2             5    8     1      -0.1209453290E-01       5    8    1        -0.6532349361E+00      0.1614584254E+01
          0                 3           2             4    7     1      -0.5791626489E-02       4    7    1        -0.3025391027E+00      0.7265784114E+00
          0                 4           2             4    7     1      -0.2840754224E-02       5    8    1        -0.1493266817E+00      0.3647461498E+00
          0                 5           2             4    7     1      -0.1426088507E-02       4    7    1        -0.7444908272E-01      0.1822035528E+00
          0                 6           2             4    7     1      -0.7125416258E-03       5    8    1        -0.3720565309E-01      0.9112672328E-01
          0                 7           2             4    7     1      -0.3563256438E-03       4    7    1        -0.1860144627E-01      0.4556147041E-01
          0                 8           2             4    7     1      -0.1781527718E-03       4    7    1        -0.9300183860E-02      0.2278033957E-01
          0                 9           1             4    7     1      -0.8909109344E-04       4    7    1        -0.4650861120E-02      0.1139196141E-01

    ------------------------------------------------
       NWT REQUIRED            9 OUTER ITERATIONS 
       AND A TOTAL OF         17 INNER ITERATIONS.
    ------------------------------------------------

 NO OUTPUT CONTROL FOR STRESS PERIOD   45   TIME STEP   25
 
 SOLVING FOR HEAD 
                                                   Max.-Head-Change                         Max.-Flux-Residual
  Residual-Control   Outer-Iter.   Inner-Iter.     Column Row Layer    Maximum-Head-Change  Column Row Layer    Maximum-Flux-Residual          L2-NORM 
          0                 1           2             4    7     1      -0.3700819061E-01       4    7    1        -0.1949001580E+01      0.5398147775E+01
          0                 2           2             5    8     1      -0.1216755193E-01       5    8    1        -0.6571154446E+00      0.1625018414E+01
          0                 3           2             4    7     1      -0.5795340174E-02       4    7    1        -0.3027281219E+00      0.7272955076E+00
          0                 4           2             4    7     1      -0.2847558980E-02       5    8    1        -0.1496649631E+00      0.3655911817E+00
          0                 5           2             4    7     1      -0.1428991528E-02       4    7    1        -0.7460046256E-01      0.1825768913E+00
          0                 6           2             4    7     1      -0.7140430723E-03       5    8    1        -0.3728380042E-01      0.9131831295E-01
          0                 7           2             4    7     1      -0.3570805075E-03       4    7    1        -0.1864082080E-01      0.4565794119E-01
          0                 8           2             4    7     1      -0.1785252231E-03       4    7    1        -0.9319611344E-02      0.2282792332E-01
          0                 9           1             4    7     1      -0.8926411501E-04       4    7    1        -0.4659885556E-02      0.1141406660E-01

    ------------------------------------------------
       NWT REQUIRED            9 OUTER ITERATIONS 
       AND A TOTAL OF         17 INNER ITERATIONS.
    ------------------------------------------------

 NO OUTPUT CONTROL FOR STRESS PERIOD   45   TIME STEP   26
 
 SOLVING FOR HEAD 
                                                   Max.-Head-Change                         Max.-Flux-Residual
  Residual-Control   Outer-Iter.   Inner-Iter.     Column Row Layer    Maximum-Head-Change  Column Row Layer    Maximum-Flux-Residual          L2-NORM 
          0                 1           2             4    7     1      -0.3631912654E-01       4    7    1        -0.1912594621E+01      0.5363538594E+01
          0                 2           2             5    8     1      -0.1224017027E-01       5    8    1        -0.6609750328E+00      0.1635372686E+01
          0                 3           2             4    7     1      -0.5799122053E-02       4    7    1        -0.3029208081E+00      0.7280158618E+00
          0                 4           2             4    7     1      -0.2854338611E-02       5    8    1        -0.1500023206E+00      0.3664335609E+00
          0                 5           2             4    7     1      -0.1431897043E-02       4    7    1        -0.7475197434E-01      0.1829504958E+00
          0                 6           2             4    7     1      -0.7155442598E-03       5    8    1        -0.3736193851E-01      0.9150987598E-01
          0                 7           2             4    7     1      -0.3578171240E-03       4    7    1        -0.1867924296E-01      0.4575207861E-01
          0                 8           2             4    7     1      -0.1789086299E-03       4    7    1        -0.9339610885E-02      0.2287690839E-01
          0                 9           1             4    7     1      -0.8945430920E-04       4    7    1        -0.4669806503E-02      0.1143836735E-01

    ------------------------------------------------
       NWT REQUIRED            9 OUTER ITERATIONS 
       AND A TOTAL OF         17 INNER ITERATIONS.
    ------------------------------------------------

 NO OUTPUT CONTROL FOR STRESS PERIOD   45   TIME STEP   27
 
 SOLVING FOR HEAD 
                                                   Max.-Head-Change                         Max.-Flux-Residual
  Residual-Control   Outer-Iter.   Inner-Iter.     Column Row Layer    Maximum-Head-Change  Column Row Layer    Maximum-Flux-Residual          L2-NORM 
          0                 1           2             4    7     1      -0.3564112014E-01       4    7    1        -0.1876774952E+01      0.5329883014E+01
          0                 2           2             5    8     1      -0.1230722774E-01       5    8    1        -0.6645007340E+00      0.1645642138E+01
          0                 3           2             4    7     1      -0.5802977347E-02       4    7    1        -0.3031177888E+00      0.7287428968E+00
          0                 4           2             4    7     1      -0.2861111382E-02       5    8    1        -0.1503364820E+00      0.3672754405E+00
          0                 5           2             4    7     1      -0.1434794350E-02       4    7    1        -0.7490305216E-01      0.1833229843E+00
          0                 6           2             4    7     1      -0.7170372544E-03       5    6    1        -0.3743961694E-01      0.9170038265E-01
          0                 7           2             4    7     1      -0.3585546199E-03       4    7    1        -0.1871770847E-01      0.4584632173E-01
          0                 8           2             4    7     1      -0.1792737110E-03       4    7    1        -0.9358652431E-02      0.2292354709E-01
          0                 9           1             4    7     1      -0.8963721653E-04       4    7    1        -0.4679346395E-02      0.1146173532E-01

    ------------------------------------------------
       NWT REQUIRED            9 OUTER ITERATIONS 
       AND A TOTAL OF         17 INNER ITERATIONS.
    ------------------------------------------------

 NO OUTPUT CONTROL FOR STRESS PERIOD   45   TIME STEP   28
 
 SOLVING FOR HEAD 
                                                   Max.-Head-Change                         Max.-Flux-Residual
  Residual-Control   Outer-Iter.   Inner-Iter.     Column Row Layer    Maximum-Head-Change  Column Row Layer    Maximum-Flux-Residual          L2-NORM 
          0                 1           2             4    7     1      -0.3497430012E-01       4    7    1        -0.1841541103E+01      0.5297175288E+01
          0                 2           2             5    8     1      -0.1238518668E-01       5    8    1        -0.6686629095E+00      0.1655852624E+01
          0                 3           2             4    7     1      -0.5806950039E-02       4    7    1        -0.3033201463E+00      0.7294764236E+00
          0                 4           2             4    7     1      -0.2867817053E-02       5    8    1        -0.1506741975E+00      0.3681095214E+00
          0                 5           2             4    7     1      -0.1437688956E-02       4    7    1        -0.7505399292E-01      0.1836950832E+00
          0                 6           2             4    7     1      -0.7185395142E-03       5    8    1        -0.3751785255E-01      0.9189209634E-01
          0                 7           2             4    7     1      -0.3592911199E-03       4    7    1        -0.1875612494E-01      0.4594044413E-01
          0                 8           2             4    7     1      -0.1796571256E-03       4    7    1        -0.9378652564E-02      0.2297253366E-01
          0                 9           1             4    7     1      -0.8981827317E-04       4    7    1        -0.4688790424E-02      0.1148486776E-01

    ------------------------------------------------
       NWT REQUIRED            9 OUTER ITERATIONS 
       AND A TOTAL OF         17 INNER ITERATIONS.
    ------------------------------------------------

 NO OUTPUT CONTROL FOR STRESS PERIOD   45   TIME STEP   29
 
 SOLVING FOR HEAD 
                                                   Max.-Head-Change                         Max.-Flux-Residual
  Residual-Control   Outer-Iter.   Inner-Iter.     Column Row Layer    Maximum-Head-Change  Column Row Layer    Maximum-Flux-Residual          L2-NORM 
          0                 1           2             4    7     1      -0.3431814943E-01       4    7    1        -0.1806879011E+01      0.5265367445E+01
          0                 2           2             5    8     1      -0.1245715023E-01       5    8    1        -0.6724906225E+00      0.1665979128E+01
          0                 3           2             4    7     1      -0.5810964950E-02       4    7    1        -0.3035252604E+00      0.7302111028E+00
          0                 4           2             4    7     1      -0.2874545870E-02       5    8    1        -0.1510102849E+00      0.3689469578E+00
          0                 5           2             4    7     1      -0.1440553826E-02       4    7    1        -0.7520338759E-01      0.1840633418E+00
          0                 6           2             4    7     1      -0.7200264707E-03       5    8    1        -0.3759526275E-01      0.9208185808E-01
          0                 7           2             4    7     1      -0.3600382804E-03       4    7    1        -0.1879509814E-01      0.4603592977E-01
          0                 8           2             4    7     1      -0.1800120689E-03       4    7    1        -0.9397166482E-02      0.2301787997E-01
          0                 9           1             4    7     1      -0.9000217544E-04       4    7    1        -0.4698383073E-02      0.1150836455E-01

    ------------------------------------------------
       NWT REQUIRED            9 OUTER ITERATIONS 
       AND A TOTAL OF         17 INNER ITERATIONS.
    ------------------------------------------------

 NO OUTPUT CONTROL FOR STRESS PERIOD   45   TIME STEP   30



 STREAM LISTING     PERIOD     45   STEP       30

 LAYER ROW COL. STREAM  RCH.  FLOW INTO     FLOW TO   FLOW OUT OF   OVRLND.     DIRECT     STREAM       STREAM     STREAM     STREAM   STREAMBED  STREAMBED
                SEG.NO.  NO.  STRM. RCH.    AQUIFER    STRM. RCH.    RUNOFF     PRECIP       ET          HEAD       DEPTH      WIDTH   CONDCTNC.   GRADIENT

   1    1    1     1     1    1.3875E+01  1.7894E-01   1.3696E+01  0.000E+00  0.000E+00  0.000E+00  1.09404E+03  9.876E-01  9.972E+00  4.487E-02  1.329E+00
   1    2    2     1     2    1.3696E+01  2.7573E-01   1.3420E+01  0.000E+00  0.000E+00  0.000E+00  1.08904E+03  9.829E-01  9.890E+00  6.923E-02  1.328E+00
   1    3    3     1     3    1.3420E+01  2.3380E-01   1.3186E+01  0.000E+00  0.000E+00  0.000E+00  1.08340E+03  9.775E-01  9.797E+00  5.878E-02  1.326E+00
   1    3    4     1     4    1.3186E+01  2.1419E-01   1.2972E+01  0.000E+00  0.000E+00  0.000E+00  1.07838E+03  9.727E-01  9.714E+00  5.391E-02  1.324E+00
   1    4    5     2     1    1.0972E+01  2.9101E-01   1.0681E+01  0.000E+00  0.000E+00  0.000E+00  1.07266E+03  7.309E-01  1.200E+01  7.800E-02  1.244E+00
   1    5    6     2     2    1.0681E+01  2.2322E-01   1.0458E+01  0.000E+00  0.000E+00  0.000E+00  1.06723E+03  7.204E-01  1.200E+01  6.000E-02  1.240E+00
   1    6    6     2     3    1.0458E+01  2.2267E-01   1.0235E+01  0.000E+00  0.000E+00  0.000E+00  1.06250E+03  7.112E-01  1.200E+01  6.000E-02  1.237E+00
   1    7    6     2     4    1.0235E+01  2.2212E-01   1.0013E+01  0.000E+00  0.000E+00  0.000E+00  1.05778E+03  7.020E-01  1.200E+01  6.000E-02  1.234E+00
   1    8    6     2     5    1.0013E+01  2.2157E-01   9.7913E+00  0.000E+00  0.000E+00  0.000E+00  1.05305E+03  6.928E-01  1.200E+01  6.000E-02  1.231E+00
   1    3    5     3     1    2.0000E+00  2.8252E-01   1.7175E+00  0.000E+00  0.000E+00  0.000E+00  1.07555E+03  1.909E+00  9.636E+00  7.227E-02  1.955E+00
   1    3    6     3     2    1.7175E+00  2.4905E-01   1.4684E+00  0.000E+00  0.000E+00  0.000E+00  1.07264E+03  1.727E+00  8.909E+00  6.682E-02  1.864E+00
   1    3    7     3     3    1.4684E+00  1.9718E-01   1.2712E+00  0.000E+00  0.000E+00  0.000E+00  1.06987E+03  1.555E+00  8.218E+00  5.547E-02  1.777E+00
   1    4    8     3     4    1.2712E+00  2.2567E-01   1.0456E+00  0.000E+00  0.000E+00  0.000E+00  1.06682E+03  1.364E+00  7.455E+00  6.709E-02  1.682E+00
   1    5    8     3     5    1.0456E+00  1.5790E-01   8.8768E-01  0.000E+00  0.000E+00  0.000E+00  1.06362E+03  1.164E+00  6.655E+00  4.991E-02  1.582E+00
   1    6    8     3     6    8.8768E-01  5.5980E-02   8.3170E-01  0.000E+00  0.000E+00  0.000E+00  1.06158E+03  1.036E+00  6.145E+00  1.844E-02  1.518E+00
   1    5   10     4     1    1.0000E+01  9.0919E-02   9.9091E+00  0.000E+00  0.000E+00  0.000E+00  1.07836E+03  6.368E-01  1.000E+01  2.500E-02  1.212E+00
   1    5    9     4     2    9.9091E+00  1.8158E-01   9.7275E+00  0.000E+00  0.000E+00  0.000E+00  1.07154E+03  6.315E-01  1.000E+01  5.000E-02  1.211E+00
   1    6    8     4     3    9.7275E+00  1.2689E-01   9.6006E+00  0.000E+00  0.000E+00  0.000E+00  1.06381E+03  6.256E-01  1.000E+01  3.500E-02  1.209E+00
   1    6    8     5     1    1.0432E+01  2.2686E-01   1.0205E+01  0.000E+00  0.000E+00  0.000E+00  1.05868E+03  6.790E-01  1.542E+01  6.166E-02  1.226E+00
   1    7    7     5     2    1.0205E+01  2.7894E-01   9.9265E+00  0.000E+00  0.000E+00  0.000E+00  1.05417E+03  6.732E-01  1.519E+01  7.594E-02  1.224E+00
   1    8    7     5     3    9.9265E+00  1.9221E-01   9.7343E+00  0.000E+00  0.000E+00  0.000E+00  1.04992E+03  6.676E-01  1.497E+01  5.241E-02  1.223E+00
   1    8    6     5     4    9.7343E+00  1.3577E-01   9.5985E+00  0.000E+00  0.000E+00  0.000E+00  1.04691E+03  6.637E-01  1.482E+01  3.706E-02  1.221E+00
   1    9    6     6     1    9.5985E+00  2.2097E-01   9.3776E+00  0.000E+00  0.000E+00  0.000E+00  1.04341E+03  6.828E-01  1.200E+01  6.000E-02  1.228E+00
   1   10    7     6     2    9.3776E+00  2.2039E-01   9.1572E+00  0.000E+00  0.000E+00  0.000E+00  1.03885E+03  6.732E-01  1.200E+01  6.000E-02  1.224E+00
   1   11    7     6     3    9.1572E+00  2.1981E-01   8.9374E+00  0.000E+00  0.000E+00  0.000E+00  1.03430E+03  6.636E-01  1.200E+01  6.000E-02  1.221E+00
   1   12    7     6     4    8.9374E+00  2.1923E-01   8.7181E+00  0.000E+00  0.000E+00  0.000E+00  1.02974E+03  6.539E-01  1.200E+01  6.000E-02  1.218E+00
   1   13    7     6     5    8.7181E+00 -8.3004E-03   8.7264E+00  0.000E+00  0.000E+00  0.000E+00  1.02656E+03  6.492E-01  1.200E+01  2.400E-01 -1.153E-02
   1   14    9     7     1    1.5000E+02  1.3917E+00   1.4861E+02  0.000E+00  0.000E+00  0.000E+00  1.03987E+03  2.288E+00  5.529E+01  5.593E-01  8.294E-01
   1   13    8     7     2    1.4861E+02  1.9960E+00   1.4661E+02  0.000E+00  0.000E+00  0.000E+00  1.03478E+03  2.279E+00  5.525E+01  6.147E-01  1.082E+00
   1   13    7     7     3    1.4661E+02  1.7282E+00   1.4488E+02  0.000E+00  0.000E+00  0.000E+00  1.02969E+03  2.269E+00  5.521E+01  5.584E-01  1.032E+00
   1   13    6     8     1    1.5361E+02  1.0785E+00   1.5253E+02  0.000E+00  0.000E+00  0.000E+00  1.02471E+03  2.838E+00  4.116E+01  4.194E-01  8.572E-01
   1   13    5     8     2    1.5253E+02  3.3151E-01   1.5220E+02  0.000E+00  0.000E+00  0.000E+00  1.01846E+03  2.833E+00  4.108E+01  4.187E-01  2.639E-01
   1   13    4     8     3    1.5220E+02 -1.8859E+00   1.5409E+02  0.000E+00  0.000E+00  0.000E+00  1.01221E+03  2.839E+00  4.116E+01  4.195E+00 -1.499E-01
   1   13    3     8     4    1.5409E+02 -3.3620E+00   1.5745E+02  0.000E+00  0.000E+00  0.000E+00  1.00598E+03  2.857E+00  4.143E+01  4.221E+00 -2.655E-01
   1   13    2     8     5    1.5745E+02 -2.5056E+00   1.5995E+02  0.000E+00  0.000E+00  0.000E+00  9.99752E+02  2.877E+00  4.172E+01  4.251E+00 -1.965E-01
   1   13    1     8     6    1.5995E+02 -1.9622E+00   1.6192E+02  0.000E+00  0.000E+00  0.000E+00  9.94767E+02  2.892E+00  4.194E+01  2.564E+00 -2.551E-01
   1    8    6     9     1    9.7913E+00  0.0000E+00   9.7913E+00  0.000E+00  0.000E+00  0.000E+00  1.08099E+03  2.238E+00  4.000E+00  0.000E+00  1.746E+00
   1    8    5     9     2    9.7913E+00  0.0000E+00   9.7913E+00  0.000E+00  0.000E+00  0.000E+00  1.08049E+03  2.238E+00  4.000E+00  0.000E+00  1.746E+00





UNSATURATED ZONE PACKAGE VOLUMETRIC BUDGET FOR  TIME STEP    30 STRESS PERIOD   45
  ------------------------------------------------------------------------------



     CUMULATIVE VOLUMES      L**3       RATES FOR THIS TIME STEP      L**3/T
     ------------------                 ------------------------

           IN:                                      IN:
           ---                                      ---
        INFILTRATION =  2063269957.2732          INFILTRATION =          52.9487

          OUT:                                     OUT:
          ----                                     ----
              UZF ET =  1930853660.5370                UZF ET =          52.8406
        UZF RECHARGE =     1239720.7563          UZF RECHARGE =       0.0000E+00

            IN - OUT =   131176575.9800              IN - OUT =           0.1081

          STORAGE:                                 STORAGE:
          --------                                 --------
      STORAGE CHANGE =   131176546.4284        STORAGE CHANGE =           0.1081

 PERCENT DISCREPANCY IS DIFFERENCE BETWEEN IN-OUT MINUS CHANGE IN STORAGE
 DIVIDED BY THE AVERAGE OF IN AND OUT TIMES 100

 PERCENT DISCREPANCY =           0.00     PERCENT DISCREPANCY =           0.00






1
  VOLUMETRIC BUDGET FOR AGRICULTURAL FIELDS AT  END OF TIME STEP   30, STRESS PERIOD  45
  ------------------------------------------------------------------------------

     CUMULATIVE VOLUMES      L**3       RATES FOR THIS TIME STEP      L**3/T
     ------------------                 ------------------------

           IN:                                      IN:
           ---                                      ---
               AG WELLS  =   824133632.0000                 AG WELLS  =          38.7496
      DIVERSION SEGMENTS =   729013760.0000        DIVERSION SEGMENTS =           9.7913
           GW IRRIGATION =           0.0000             GW IRRIGATION =           0.0000
           SW IRRIGATION =           0.0000             SW IRRIGATION =           0.0000
        SYSTEM LOSSES GW =           0.0000          SYSTEM LOSSES GW =           0.0000
        SYSTEM LOSSES SW =           0.0000          SYSTEM LOSSES SW =           0.0000

                TOTAL IN =  1553147392.0000                  TOTAL IN =          48.5410

          OUT:                                     OUT:
          ----                                     ----
               AG WELLS  =           0.0000                 AG WELLS  =           0.0000
      DIVERSION SEGMENTS =           0.0000        DIVERSION SEGMENTS =           0.0000
           GW IRRIGATION =   824133632.0000             GW IRRIGATION =          38.7496
           SW IRRIGATION =   729027136.0000             SW IRRIGATION =           9.7915
        SYSTEM LOSSES GW =           0.0000          SYSTEM LOSSES GW =           0.0000
        SYSTEM LOSSES SW =           0.0000          SYSTEM LOSSES SW =           0.0000

               TOTAL OUT =  1553160704.0000                 TOTAL OUT =          48.5412

                IN - OUT =      -13312.0000                  IN - OUT =      -1.9836E-04

     PERCENT DISCREPANCY =          -0.00         PERCENT DISCREPANCY =          -0.00



1
  VOLUMETRIC BUDGET FOR ENTIRE MODEL AT END OF TIME STEP   30, STRESS PERIOD  45
  ------------------------------------------------------------------------------

     CUMULATIVE VOLUMES      L**3       RATES FOR THIS TIME STEP      L**3/T
     ------------------                 ------------------------

           IN:                                      IN:
           ---                                      ---
             STORAGE     =  1115180160.0000               STORAGE     =          36.6703
       CONSTANT HEAD     =           0.0000         CONSTANT HEAD     =           0.0000
     HEAD DEP BOUNDS     =    33408546.0000       HEAD DEP BOUNDS     =           0.2896
      STREAM LEAKAGE     =  1375154560.0000        STREAM LEAKAGE     =          11.8910
        UZF RECHARGE     =     1239721.0000          UZF RECHARGE     =           0.0000
               GW ET     =           0.0000                 GW ET     =           0.0000
     SURFACE LEAKAGE     =           0.0000       SURFACE LEAKAGE     =           0.0000
           AG WELLS      =           0.0000             AG WELLS      =           0.0000

                TOTAL IN =  2524983040.0000                  TOTAL IN =          48.8510

          OUT:                                     OUT:
          ----                                     ----
             STORAGE     =   504527712.0000               STORAGE     =       8.8246E-02
       CONSTANT HEAD     =           0.0000         CONSTANT HEAD     =           0.0000
     HEAD DEP BOUNDS     =    33335706.0000       HEAD DEP BOUNDS     =           0.2862
      STREAM LEAKAGE     =  1162927872.0000        STREAM LEAKAGE     =           9.7240
        UZF RECHARGE     =           0.0000          UZF RECHARGE     =           0.0000
               GW ET     =           0.0000                 GW ET     =           0.0000
     SURFACE LEAKAGE     =           0.0000       SURFACE LEAKAGE     =           0.0000
           AG WELLS      =   824133632.0000             AG WELLS      =          38.7496

               TOTAL OUT =  2524924928.0000                 TOTAL OUT =          48.8482

                IN - OUT =       58112.0000                  IN - OUT =       2.7962E-03

     PERCENT DISCREPANCY =           0.00         PERCENT DISCREPANCY =           0.01






         TIME SUMMARY AT END OF TIME STEP   30 IN STRESS PERIOD   45
                    SECONDS     MINUTES      HOURS       DAYS        YEARS
                    -----------------------------------------------------------
   TIME STEP LENGTH  87667.      1461.1      24.352      1.0147     2.77799E-03
 STRESS PERIOD TIME 2.63000E+06  43833.      730.56      30.440     8.33397E-02
         TOTAL TIME 1.15805E+08 1.93009E+06  32168.      1340.3      3.6696    
1
1
                            STRESS PERIOD NO.   46, LENGTH =   2630000.    
                            -----------------------------------------------

                              NUMBER OF TIME STEPS =    30

                               MULTIPLIER FOR DELT =     1.000

                            INITIAL TIME STEP SIZE =   87666.66    

 REUSING NON-PARAMETER GHB CELLS FROM LAST STRESS PERIOD

      2 GHB CELLS

 REUSING STREAM SEGMENT DATA FROM LAST STRESS PERIOD



            AREAL INFILTRATION RATE
 READING ON UNIT   19 WITH FORMAT: (10F4.0)            

            1           2           3           4           5           6           7           8           9          10
 ........................................................................................................................
   1   1.2000E-09   0.000       0.000       0.000       0.000       0.000       0.000       0.000       0.000       0.000    
   2   2.1000E-09  2.0000E-09  8.0000E-10  8.5000E-09   0.000       0.000       0.000       0.000       0.000       0.000    
   3   5.0000E-10  1.1000E-09  8.8000E-09  5.5000E-09   0.000       0.000       0.000       0.000       0.000       0.000    
   4   8.5000E-09  1.1000E-09  1.1000E-09  1.1000E-09  2.0000E-09   0.000       0.000       0.000       0.000       0.000    
   5   8.5000E-09  1.1000E-09  1.1000E-09  1.1000E-09  1.1000E-09   0.000       0.000       0.000       0.000       0.000    
   6   8.5000E-09  5.2000E-09  2.1000E-09  1.1000E-09  1.5000E-09   0.000       0.000       0.000       0.000       0.000    
   7   8.5000E-09  5.2000E-09  2.1000E-09  1.2000E-09  2.0000E-09   0.000       0.000       0.000       0.000       0.000    
   8   5.0000E-10  5.2000E-09  2.1000E-09  1.2000E-09  5.0000E-09   0.000       0.000       0.000       0.000       0.000    
   9   5.0000E-10  5.2000E-09  2.1000E-09  1.2000E-09  5.0000E-09   0.000       0.000       0.000       0.000       0.000    
  10   5.0000E-10  5.2000E-09  2.1000E-09  1.2000E-09  5.8000E-09   0.000       0.000       0.000       0.000       0.000    
  11   1.0000E-10  1.1000E-09  1.1000E-09  1.2000E-09  5.0000E-09   0.000       0.000       0.000       0.000       0.000    
  12   1.1000E-09  1.1000E-09  1.1000E-09  1.1000E-09  2.0000E-09   0.000       0.000       0.000       0.000       0.000    
  13   1.1000E-09  2.2000E-09  2.2000E-09  2.1000E-09  1.0000E-09   0.000       0.000       0.000       0.000       0.000    
  14   2.0000E-10  5.5000E-09  5.5000E-09  5.2000E-09  1.0000E-09   0.000       0.000       0.000       0.000       0.000    
  15    0.000      8.8000E-09  8.8000E-09   0.000       0.000       0.000       0.000       0.000       0.000       0.000    

                  ET RATE =  7.500000E-08

 USING ET EXTINCTION DEPTH FROM PREVIOUS STRESS PERIOD. CURRENT PERIOD IS:      46

 USING EXTINCTION WATER CONTENT FROM PREVIOUS STRESS PERIOD. CURRENT PERIOD IS:      46

 USING AIR ENTRY PRESSURE FROM PREVIOUS STRESS PERIOD. CURRENT PERIOD IS:      46

 USING ROOT PRESSURE HEAD FROM PREVIOUS STRESS PERIOD. CURRENT PERIOD IS:      46

 USING ROOT ACTIVITY FROM PREVIOUS STRESS PERIOD. CURRENT PERIOD IS:      46

 PROCESSING AG STRESS PERIOD DATA

 READING AG STRESS PERIOD DATA

 READING IRRIGATION SEGMENT

 READING IRRIGATION WELL

 READING SUPPLEMENTAL WELL

 END PROCESSING AG STRESS PERIOD DATA OPTIONS
 
 SOLVING FOR HEAD 
                                                   Max.-Head-Change                         Max.-Flux-Residual
  Residual-Control   Outer-Iter.   Inner-Iter.     Column Row Layer    Maximum-Head-Change  Column Row Layer    Maximum-Flux-Residual          L2-NORM 
          0                 1           2             5    8     1       0.7741324740E-01       5    8    1         0.4199146750E+01      0.1028312141E+02
          0                 2           2             5    8     1      -0.7530244093E-02       5    8    1        -0.4199094608E+00      0.1082299502E+01
          0                 3           2             4    7     1      -0.1054445037E-02       4    7    1        -0.5669297404E-01      0.1463367847E+00
          0                 4           2             4    7     1      -0.1158110161E-02       5    8    1        -0.6261804086E-01      0.1533423777E+00
          0                 5           2             4    7     1      -0.5365817995E-03       4    7    1        -0.2879644767E-01      0.7048947716E-01
          0                 6           2             4    7     1      -0.2720578167E-03       5    8    1        -0.1460183739E-01      0.3576517934E-01
          0                 7           2             4    7     1      -0.1361427209E-03       4    7    1        -0.7305995945E-02      0.1789551842E-01
          0                 8           1             4    7     1      -0.6824796292E-04       4    7    1        -0.3662438930E-02      0.8971020088E-02

    ------------------------------------------------
       NWT REQUIRED            8 OUTER ITERATIONS 
       AND A TOTAL OF         15 INNER ITERATIONS.
    ------------------------------------------------

 NO OUTPUT CONTROL FOR STRESS PERIOD   46   TIME STEP    1
 
 SOLVING FOR HEAD 
                                                   Max.-Head-Change                         Max.-Flux-Residual
  Residual-Control   Outer-Iter.   Inner-Iter.     Column Row Layer    Maximum-Head-Change  Column Row Layer    Maximum-Flux-Residual          L2-NORM 
          0                 1           2             5    8     1       0.7434092940E-01       5    8    1         0.4028970072E+01      0.9977295267E+01
          0                 2           2             5    8     1      -0.7231396182E-02       5    8    1        -0.4028921407E+00      0.1053170899E+01
          0                 3           2             4    7     1      -0.1055087580E-02       4    7    1        -0.5670459917E-01      0.1476317510E+00
          0                 4           2             4    7     1      -0.1160216075E-02       5    8    1        -0.6264941330E-01      0.1535083759E+00
          0                 5           2             4    7     1      -0.5370864283E-03       4    7    1        -0.2882339350E-01      0.7056348880E-01
          0                 6           2             4    7     1      -0.2721501279E-03       5    6    1        -0.1460638882E-01      0.3577675088E-01
          0                 7           2             4    7     1      -0.1361394092E-03       4    7    1        -0.7305812949E-02      0.1789510899E-01
          0                 8           1             4    7     1      -0.6823352858E-04       4    7    1        -0.3661661999E-02      0.8969113434E-02

    ------------------------------------------------
       NWT REQUIRED            8 OUTER ITERATIONS 
       AND A TOTAL OF         15 INNER ITERATIONS.
    ------------------------------------------------

 NO OUTPUT CONTROL FOR STRESS PERIOD   46   TIME STEP    2
 
 SOLVING FOR HEAD 
                                                   Max.-Head-Change                         Max.-Flux-Residual
  Residual-Control   Outer-Iter.   Inner-Iter.     Column Row Layer    Maximum-Head-Change  Column Row Layer    Maximum-Flux-Residual          L2-NORM 
          0                 1           2             5    6     1       0.6868235445E-01       5    8    1         0.3720065540E+01      0.9357228628E+01
          0                 2           2             5    6     1      -0.1306625908E-01       5    8    1        -0.7229909659E+00      0.1776248054E+01
          0                 3           2             4    7     1      -0.1607334029E-02       4    7    1        -0.8632031727E-01      0.2072575507E+00
          0                 4           2             4    7     1      -0.1123041306E-02       5    8    1        -0.6057899739E-01      0.1480954838E+00
          0                 5           2             4    7     1      -0.5403262376E-03       4    7    1        -0.2899713518E-01      0.7099430209E-01
          0                 6           2             4    7     1      -0.2721894467E-03       5    6    1        -0.1460814219E-01      0.3578138546E-01
          0                 7           2             4    7     1      -0.1362175567E-03       4    7    1        -0.7310001526E-02      0.1790540533E-01
          0                 8           1             4    7     1      -0.6823948793E-04       4    7    1        -0.3661979526E-02      0.8969888629E-02

    ------------------------------------------------
       NWT REQUIRED            8 OUTER ITERATIONS 
       AND A TOTAL OF         15 INNER ITERATIONS.
    ------------------------------------------------

 NO OUTPUT CONTROL FOR STRESS PERIOD   46   TIME STEP    3
 
 SOLVING FOR HEAD 
                                                   Max.-Head-Change                         Max.-Flux-Residual
  Residual-Control   Outer-Iter.   Inner-Iter.     Column Row Layer    Maximum-Head-Change  Column Row Layer    Maximum-Flux-Residual          L2-NORM 
          0                 1           2             5    6     1       0.6348442964E-01       5    6    1         0.3431410458E+01      0.8769200685E+01
          0                 2           2             5    6     1      -0.1255776768E-01       5    6    1        -0.6939669835E+00      0.1710879355E+01
          0                 3           2             4    7     1      -0.1632357495E-02       4    7    1        -0.8764523016E-01      0.2113537095E+00
          0                 4           2             4    7     1      -0.1122998221E-02       5    6    1        -0.6051471180E-01      0.1480028641E+00
          0                 5           2             4    7     1      -0.5410848259E-03       4    7    1        -0.2903773832E-01      0.7109997987E-01
          0                 6           2             4    7     1      -0.2724685737E-03       5    6    1        -0.1462282666E-01      0.3581763937E-01
          0                 7           2             4    7     1      -0.1363424752E-03       4    7    1        -0.7316701031E-02      0.1792184596E-01
          0                 8           1             4    7     1      -0.6828186909E-04       4    7    1        -0.3664252033E-02      0.8975452916E-02

    ------------------------------------------------
       NWT REQUIRED            8 OUTER ITERATIONS 
       AND A TOTAL OF         15 INNER ITERATIONS.
    ------------------------------------------------

 NO OUTPUT CONTROL FOR STRESS PERIOD   46   TIME STEP    4
 
 SOLVING FOR HEAD 
                                                   Max.-Head-Change                         Max.-Flux-Residual
  Residual-Control   Outer-Iter.   Inner-Iter.     Column Row Layer    Maximum-Head-Change  Column Row Layer    Maximum-Flux-Residual          L2-NORM 
          0                 1           2             5    6     1       0.6140092931E-01       5    6    1         0.3316666311E+01      0.8545241573E+01
          0                 2           2             5    6     1      -0.1235287592E-01       5    6    1        -0.6823701276E+00      0.1690336523E+01
          0                 3           2             4    7     1      -0.1637709343E-02       4    7    1        -0.8791624815E-01      0.2130155330E+00
          0                 4           2             4    7     1      -0.1124566569E-02       5    6    1        -0.6054633060E-01      0.1481315492E+00
          0                 5           2             4    7     1      -0.5418637911E-03       4    7    1        -0.2907944717E-01      0.7120771835E-01
          0                 6           2             4    7     1      -0.2728206539E-03       5    6    1        -0.1464145894E-01      0.3586356191E-01
          0                 7           2             4    7     1      -0.1364955874E-03       4    7    1        -0.7324914400E-02      0.1794204748E-01
          0                 8           1             4    7     1      -0.6835336625E-04       4    7    1        -0.3668087426E-02      0.8984846292E-02

    ------------------------------------------------
       NWT REQUIRED            8 OUTER ITERATIONS 
       AND A TOTAL OF         15 INNER ITERATIONS.
    ------------------------------------------------

 NO OUTPUT CONTROL FOR STRESS PERIOD   46   TIME STEP    5
 
 SOLVING FOR HEAD 
                                                   Max.-Head-Change                         Max.-Flux-Residual
  Residual-Control   Outer-Iter.   Inner-Iter.     Column Row Layer    Maximum-Head-Change  Column Row Layer    Maximum-Flux-Residual          L2-NORM 
          0                 1           2             5    6     1       0.5943553594E-01       5    6    1         0.3208491292E+01      0.8333023630E+01
          0                 2           2             5    7     1      -0.1219423900E-01       5    6    1        -0.6714685780E+00      0.1670891990E+01
          0                 3           2             4    7     1      -0.1643698783E-02       4    7    1        -0.8822269024E-01      0.2146937509E+00
          0                 4           2             4    7     1      -0.1126324512E-02       5    6    1        -0.6059231271E-01      0.1482910900E+00
          0                 5           2             4    7     1      -0.5427449324E-03       4    7    1        -0.2912664799E-01      0.7132848448E-01
          0                 6           2             4    7     1      -0.2732266376E-03       5    6    1        -0.1466300563E-01      0.3591654002E-01
          0                 7           2             4    7     1      -0.1366860047E-03       4    7    1        -0.7335130440E-02      0.1796704059E-01
          0                 8           1             4    7     1      -0.6843890324E-04       4    7    1        -0.3672676607E-02      0.8996085008E-02

    ------------------------------------------------
       NWT REQUIRED            8 OUTER ITERATIONS 
       AND A TOTAL OF         15 INNER ITERATIONS.
    ------------------------------------------------

 NO OUTPUT CONTROL FOR STRESS PERIOD   46   TIME STEP    6
 
 SOLVING FOR HEAD 
                                                   Max.-Head-Change                         Max.-Flux-Residual
  Residual-Control   Outer-Iter.   Inner-Iter.     Column Row Layer    Maximum-Head-Change  Column Row Layer    Maximum-Flux-Residual          L2-NORM 
          0                 1           2             5    7     1       0.5778392295E-01       5    6    1         0.3102811455E+01      0.8123583579E+01
          0                 2           2             5    7     1      -0.1203943702E-01       5    6    1        -0.6582899474E+00      0.1645528147E+01
          0                 3           2             4    7     1      -0.1644060895E-02       4    7    1        -0.8822827287E-01      0.2155751916E+00
          0                 4           2             4    7     1      -0.1123663805E-02       5    6    1        -0.6040506011E-01      0.1478753510E+00
          0                 5           2             4    7     1      -0.5415396877E-03       4    7    1        -0.2906189089E-01      0.7117461771E-01
          0                 6           2             4    7     1      -0.2725736098E-03       5    7    1        -0.1462782790E-01      0.3583037276E-01
          0                 7           2             4    7     1      -0.1363474739E-03       4    7    1        -0.7316961638E-02      0.1792256010E-01
          0                 8           1             4    7     1      -0.6826270614E-04       4    7    1        -0.3663220524E-02      0.8972921157E-02

    ------------------------------------------------
       NWT REQUIRED            8 OUTER ITERATIONS 
       AND A TOTAL OF         15 INNER ITERATIONS.
    ------------------------------------------------

 NO OUTPUT CONTROL FOR STRESS PERIOD   46   TIME STEP    7
 
 SOLVING FOR HEAD 
                                                   Max.-Head-Change                         Max.-Flux-Residual
  Residual-Control   Outer-Iter.   Inner-Iter.     Column Row Layer    Maximum-Head-Change  Column Row Layer    Maximum-Flux-Residual          L2-NORM 
          0                 1           2             5    7     1       0.5679534183E-01       5    7    1         0.3013323192E+01      0.7934455867E+01
          0                 2           2             5    7     1      -0.1195491073E-01       5    7    1        -0.6499738589E+00      0.1629801963E+01
          0                 3           2             4    7     1      -0.1652774380E-02       4    7    1        -0.8868311769E-01      0.2174842248E+00
          0                 4           2             4    7     1      -0.1126919038E-02       5    7    1        -0.6054418926E-01      0.1482424362E+00
          0                 5           2             4    7     1      -0.5431777670E-03       4    7    1        -0.2914972867E-01      0.7139415463E-01
          0                 6           2             4    7     1      -0.2733619207E-03       5    7    1        -0.1467003346E-01      0.3593369660E-01
          0                 7           2             4    7     1      -0.1367276736E-03       4    7    1        -0.7337363435E-02      0.1797255492E-01
          0                 8           1             4    7     1      -0.6844711655E-04       4    7    1        -0.3673116214E-02      0.8997158689E-02

    ------------------------------------------------
       NWT REQUIRED            8 OUTER ITERATIONS 
       AND A TOTAL OF         15 INNER ITERATIONS.
    ------------------------------------------------

 NO OUTPUT CONTROL FOR STRESS PERIOD   46   TIME STEP    8
 
 SOLVING FOR HEAD 
                                                   Max.-Head-Change                         Max.-Flux-Residual
  Residual-Control   Outer-Iter.   Inner-Iter.     Column Row Layer    Maximum-Head-Change  Column Row Layer    Maximum-Flux-Residual          L2-NORM 
          0                 1           2             5    7     1       0.5586488353E-01       5    7    1         0.2963951736E+01      0.7759060423E+01
          0                 2           2             5    7     1      -0.1190144354E-01       5    7    1        -0.6470450323E+00      0.1618619586E+01
          0                 3           2             4    7     1      -0.1665191313E-02       4    7    1        -0.8933772944E-01      0.2198191248E+00
          0                 4           2             4    7     1      -0.1132704890E-02       5    7    1        -0.6083610203E-01      0.1489470201E+00
          0                 5           2             4    7     1      -0.5460424996E-03       4    7    1        -0.2930340208E-01      0.7177460524E-01
          0                 6           2             4    7     1      -0.2747695910E-03       5    7    1        -0.1474548377E-01      0.3611846084E-01
          0                 7           2             4    7     1      -0.1374187921E-03       4    7    1        -0.7374451025E-02      0.1806341934E-01
          0                 8           1             4    7     1      -0.6878745518E-04       4    7    1        -0.3691379833E-02      0.9041893246E-02

    ------------------------------------------------
       NWT REQUIRED            8 OUTER ITERATIONS 
       AND A TOTAL OF         15 INNER ITERATIONS.
    ------------------------------------------------

 NO OUTPUT CONTROL FOR STRESS PERIOD   46   TIME STEP    9
 
 SOLVING FOR HEAD 
                                                   Max.-Head-Change                         Max.-Flux-Residual
  Residual-Control   Outer-Iter.   Inner-Iter.     Column Row Layer    Maximum-Head-Change  Column Row Layer    Maximum-Flux-Residual          L2-NORM 
          0                 1           2             5    7     1       0.5484019956E-01       5    7    1         0.2909571721E+01      0.7578662404E+01
          0                 2           2             4    7     1      -0.1178082363E-01       5    7    1        -0.6393124563E+00      0.1596514707E+01
          0                 3           2             4    7     1      -0.1667601490E-02       5    8    1        -0.8973323314E-01      0.2207945597E+00
          0                 4           2             4    7     1      -0.1130890117E-02       5    7    1        -0.6072136852E-01      0.1486570478E+00
          0                 5           2             4    7     1      -0.5452832377E-03       5    8    1        -0.2926361813E-01      0.7167837164E-01
          0                 6           2             4    7     1      -0.2743518249E-03       5    7    1        -0.1472298076E-01      0.3606329939E-01
          0                 7           2             4    7     1      -0.1372003635E-03       4    7    1        -0.7362729146E-02      0.1803472928E-01
          0                 8           1             4    7     1      -0.6866835886E-04       4    7    1        -0.3684988809E-02      0.9026244753E-02

    ------------------------------------------------
       NWT REQUIRED            8 OUTER ITERATIONS 
       AND A TOTAL OF         15 INNER ITERATIONS.
    ------------------------------------------------

 NO OUTPUT CONTROL FOR STRESS PERIOD   46   TIME STEP   10
 
 SOLVING FOR HEAD 
                                                   Max.-Head-Change                         Max.-Flux-Residual
  Residual-Control   Outer-Iter.   Inner-Iter.     Column Row Layer    Maximum-Head-Change  Column Row Layer    Maximum-Flux-Residual          L2-NORM 
          0                 1           2             4    7     1       0.5404938657E-01       5    7    1         0.2858992658E+01      0.7412420088E+01
          0                 2           2             4    7     1      -0.1174116289E-01       5    7    1        -0.6338536166E+00      0.1580249020E+01
          0                 3           2             4    7     1      -0.1674946868E-02       5    8    1        -0.9059581981E-01      0.2223624106E+00
          0                 4           2             4    7     1      -0.1132534887E-02       5    7    1        -0.6079347737E-01      0.1488260601E+00
          0                 5           2             4    7     1      -0.5461931699E-03       5    8    1        -0.2931471833E-01      0.7180126570E-01
          0                 6           2             4    7     1      -0.2747767763E-03       4    7    1        -0.1474578418E-01      0.3611893111E-01
          0                 7           2             4    7     1      -0.1374016113E-03       4    7    1        -0.7373529295E-02      0.1806119636E-01
          0                 8           1             4    7     1      -0.6876421447E-04       4    7    1        -0.3690133095E-02      0.9038837030E-02

    ------------------------------------------------
       NWT REQUIRED            8 OUTER ITERATIONS 
       AND A TOTAL OF         15 INNER ITERATIONS.
    ------------------------------------------------

 NO OUTPUT CONTROL FOR STRESS PERIOD   46   TIME STEP   11
 
 SOLVING FOR HEAD 
                                                   Max.-Head-Change                         Max.-Flux-Residual
  Residual-Control   Outer-Iter.   Inner-Iter.     Column Row Layer    Maximum-Head-Change  Column Row Layer    Maximum-Flux-Residual          L2-NORM 
          0                 1           2             4    7     1       0.5369604036E-01       4    7    1         0.2811166168E+01      0.7253781944E+01
          0                 2           2             4    7     1      -0.1169943852E-01       4    7    1        -0.6286771934E+00      0.1564655422E+01
          0                 3           2             4    7     1      -0.1682639794E-02       5    8    1        -0.9143552089E-01      0.2239271390E+00
          0                 4           2             4    7     1      -0.1134264097E-02       4    7    1        -0.6087385757E-01      0.1490101206E+00
          0                 5           2             4    7     1      -0.5471560172E-03       5    8    1        -0.2936845816E-01      0.7193084685E-01
          0                 6           2             4    7     1      -0.2752246604E-03       4    7    1        -0.1476982526E-01      0.3617760071E-01
          0                 7           2             4    7     1      -0.1376190141E-03       4    7    1        -0.7385196878E-02      0.1808979094E-01
          0                 8           1             4    7     1      -0.6886670910E-04       4    7    1        -0.3695633882E-02      0.9052309906E-02

    ------------------------------------------------
       NWT REQUIRED            8 OUTER ITERATIONS 
       AND A TOTAL OF         15 INNER ITERATIONS.
    ------------------------------------------------

 NO OUTPUT CONTROL FOR STRESS PERIOD   46   TIME STEP   12
 
 SOLVING FOR HEAD 
                                                   Max.-Head-Change                         Max.-Flux-Residual
  Residual-Control   Outer-Iter.   Inner-Iter.     Column Row Layer    Maximum-Head-Change  Column Row Layer    Maximum-Flux-Residual          L2-NORM 
          0                 1           2             4    7     1       0.5332180339E-01       4    7    1         0.2792810277E+01      0.7102206393E+01
          0                 2           2             4    7     1      -0.1165548088E-01       4    7    1        -0.6264362850E+00      0.1549655337E+01
          0                 3           2             4    7     1      -0.1690602191E-02       5    8    1        -0.9225108770E-01      0.2254811519E+00
          0                 4           2             4    7     1      -0.1136034345E-02       4    7    1        -0.6096947996E-01      0.1492032708E+00
          0                 5           2             4    7     1      -0.5481492770E-03       5    8    1        -0.2942364412E-01      0.7206417356E-01
          0                 6           2             4    7     1      -0.2756937211E-03       4    7    1        -0.1479500332E-01      0.3623907397E-01
          0                 7           2             4    7     1      -0.1378438109E-03       4    7    1        -0.7397261661E-02      0.1811935710E-01
          0                 8           1             4    7     1      -0.6897312384E-04       4    7    1        -0.3701345244E-02      0.9066298671E-02

    ------------------------------------------------
       NWT REQUIRED            8 OUTER ITERATIONS 
       AND A TOTAL OF         15 INNER ITERATIONS.
    ------------------------------------------------

 NO OUTPUT CONTROL FOR STRESS PERIOD   46   TIME STEP   13
 
 SOLVING FOR HEAD 
                                                   Max.-Head-Change                         Max.-Flux-Residual
  Residual-Control   Outer-Iter.   Inner-Iter.     Column Row Layer    Maximum-Head-Change  Column Row Layer    Maximum-Flux-Residual          L2-NORM 
          0                 1           2             4    7     1       0.5292859608E-01       4    7    1         0.2773357413E+01      0.6957219238E+01
          0                 2           2             4    7     1      -0.1160933268E-01       4    7    1        -0.6240671809E+00      0.1535187345E+01
          0                 3           2             4    7     1      -0.1698784429E-02       5    8    1        -0.9304272760E-01      0.2270208980E+00
          0                 4           2             4    7     1      -0.1137836895E-02       4    7    1        -0.6106678615E-01      0.1494040991E+00
          0                 5           2             4    7     1      -0.5491657876E-03       5    8    1        -0.2947990578E-01      0.7220032128E-01
          0                 6           2             4    7     1      -0.2761733546E-03       4    7    1        -0.1482074928E-01      0.3630195565E-01
          0                 7           2             4    7     1      -0.1380767443E-03       4    7    1        -0.7409763500E-02      0.1814999264E-01
          0                 8           1             4    7     1      -0.6908673963E-04       4    7    1        -0.3707443220E-02      0.9081234567E-02

    ------------------------------------------------
       NWT REQUIRED            8 OUTER ITERATIONS 
       AND A TOTAL OF         15 INNER ITERATIONS.
    ------------------------------------------------

 NO OUTPUT CONTROL FOR STRESS PERIOD   46   TIME STEP   14
 
 SOLVING FOR HEAD 
                                                   Max.-Head-Change                         Max.-Flux-Residual
  Residual-Control   Outer-Iter.   Inner-Iter.     Column Row Layer    Maximum-Head-Change  Column Row Layer    Maximum-Flux-Residual          L2-NORM 
          0                 1           2             4    7     1       0.5251848358E-01       4    7    1         0.2752922746E+01      0.6818367801E+01
          0                 2           2             4    7     1      -0.1156112640E-01       4    7    1        -0.6215776743E+00      0.1521193029E+01
          0                 3           2             4    6     1      -0.1708902764E-02       5    8    1        -0.9381246887E-01      0.2285469162E+00
          0                 4           2             4    7     1      -0.1139657165E-02       4    7    1        -0.6116499655E-01      0.1496104739E+00
          0                 5           2             4    7     1      -0.5501987988E-03       5    8    1        -0.2953689417E-01      0.7233841984E-01
          0                 6           2             4    7     1      -0.2766618146E-03       4    7    1        -0.1484696935E-01      0.3636601467E-01
          0                 7           2             4    7     1      -0.1383112739E-03       4    7    1        -0.7422351345E-02      0.1818083770E-01
          0                 8           1             4    7     1      -0.6919801788E-04       4    7    1        -0.3713415951E-02      0.9095863748E-02

    ------------------------------------------------
       NWT REQUIRED            8 OUTER ITERATIONS 
       AND A TOTAL OF         15 INNER ITERATIONS.
    ------------------------------------------------

 NO OUTPUT CONTROL FOR STRESS PERIOD   46   TIME STEP   15
 
 SOLVING FOR HEAD 
                                                   Max.-Head-Change                         Max.-Flux-Residual
  Residual-Control   Outer-Iter.   Inner-Iter.     Column Row Layer    Maximum-Head-Change  Column Row Layer    Maximum-Flux-Residual          L2-NORM 
          0                 1           2             4    7     1       0.5209314086E-01       4    7    1         0.2731599075E+01      0.6685276415E+01
          0                 2           2             4    7     1      -0.1151106295E-01       4    7    1        -0.6189791329E+00      0.1507661270E+01
          0                 3           2             4    6     1      -0.1720513851E-02       5    8    1        -0.9456115492E-01      0.2300585049E+00
          0                 4           2             4    7     1      -0.1141496996E-02       4    7    1        -0.6126421279E-01      0.1498224054E+00
          0                 5           2             4    7     1      -0.5512515156E-03       5    8    1        -0.2959479214E-01      0.7247890379E-01
          0                 6           2             4    7     1      -0.2771566557E-03       4    7    1        -0.1487353227E-01      0.3643092856E-01
          0                 7           2             4    7     1      -0.1385520134E-03       4    7    1        -0.7435272792E-02      0.1821249903E-01
          0                 8           1             4    7     1      -0.6931774400E-04       4    7    1        -0.3719842167E-02      0.9111604097E-02

    ------------------------------------------------
       NWT REQUIRED            8 OUTER ITERATIONS 
       AND A TOTAL OF         15 INNER ITERATIONS.
    ------------------------------------------------

 NO OUTPUT CONTROL FOR STRESS PERIOD   46   TIME STEP   16
 
 SOLVING FOR HEAD 
                                                   Max.-Head-Change                         Max.-Flux-Residual
  Residual-Control   Outer-Iter.   Inner-Iter.     Column Row Layer    Maximum-Head-Change  Column Row Layer    Maximum-Flux-Residual          L2-NORM 
          0                 1           2             4    7     1       0.5166395919E-01       4    7    1         0.2709987482E+01      0.6558728870E+01
          0                 2           2             4    7     1      -0.1146679244E-01       4    7    1        -0.6166827382E+00      0.1495513859E+01
          0                 3           2             4    6     1      -0.1732804848E-02       5    8    1        -0.9533491154E-01      0.2316641743E+00
          0                 4           2             4    7     1      -0.1143966995E-02       4    7    1        -0.6139720632E-01      0.1501199490E+00
          0                 5           2             4    7     1      -0.5526099450E-03       5    8    1        -0.2966895999E-01      0.7265938367E-01
          0                 6           2             4    7     1      -0.2778100053E-03       4    7    1        -0.1490860188E-01      0.3651669337E-01
          0                 7           2             4    7     1      -0.1388705007E-03       4    7    1        -0.7452366806E-02      0.1825437961E-01
          0                 8           1             4    7     1      -0.6947533799E-04       4    7    1        -0.3728300650E-02      0.9132321908E-02

    ------------------------------------------------
       NWT REQUIRED            8 OUTER ITERATIONS 
       AND A TOTAL OF         15 INNER ITERATIONS.
    ------------------------------------------------

 NO OUTPUT CONTROL FOR STRESS PERIOD   46   TIME STEP   17
 
 SOLVING FOR HEAD 
                                                   Max.-Head-Change                         Max.-Flux-Residual
  Residual-Control   Outer-Iter.   Inner-Iter.     Column Row Layer    Maximum-Head-Change  Column Row Layer    Maximum-Flux-Residual          L2-NORM 
          0                 1           2             4    7     1       0.5121330577E-01       4    7    1         0.2687173215E+01      0.6436109919E+01
          0                 2           2             4    7     1      -0.1141334752E-01       4    7    1        -0.6138858127E+00      0.1482789071E+01
          0                 3           2             5    8     1      -0.1745184827E-02       5    8    1        -0.9604421506E-01      0.2331433251E+00
          0                 4           2             4    7     1      -0.1145817049E-02       4    7    1        -0.6149689158E-01      0.1503385970E+00
          0                 5           2             4    7     1      -0.5536796681E-03       5    8    1        -0.2972750833E-01      0.7280173620E-01
          0                 6           2             4    7     1      -0.2783147382E-03       4    7    1        -0.1493569636E-01      0.3658293639E-01
          0                 7           2             4    7     1      -0.1391227527E-03       4    7    1        -0.7465906672E-02      0.1828755366E-01
          0                 8           1             4    7     1      -0.6959425147E-04       4    7    1        -0.3734683547E-02      0.9147955931E-02

    ------------------------------------------------
       NWT REQUIRED            8 OUTER ITERATIONS 
       AND A TOTAL OF         15 INNER ITERATIONS.
    ------------------------------------------------

 NO OUTPUT CONTROL FOR STRESS PERIOD   46   TIME STEP   18
 
 SOLVING FOR HEAD 
                                                   Max.-Head-Change                         Max.-Flux-Residual
  Residual-Control   Outer-Iter.   Inner-Iter.     Column Row Layer    Maximum-Head-Change  Column Row Layer    Maximum-Flux-Residual          L2-NORM 
          0                 1           2             4    7     1       0.5075314133E-01       4    7    1         0.2663785827E+01      0.6318363927E+01
          0                 2           2             4    7     1      -0.1135920102E-01       4    7    1        -0.6110417539E+00      0.1470526611E+01
          0                 3           2             5    8     1      -0.1757848901E-02       5    8    1        -0.9675052958E-01      0.2346172132E+00
          0                 4           2             4    7     1      -0.1147735544E-02       4    7    1        -0.6160021356E-01      0.1505686548E+00
          0                 5           2             4    7     1      -0.5547833556E-03       5    8    1        -0.2978782037E-01      0.7294840039E-01
          0                 6           2             4    7     1      -0.2788425789E-03       4    7    1        -0.1496403346E-01      0.3665223540E-01
          0                 7           2             4    7     1      -0.1393755784E-03       4    7    1        -0.7479478722E-02      0.1832080575E-01
          0                 8           1             4    7     1      -0.6972199553E-04       4    7    1        -0.3741541034E-02      0.9164752577E-02

    ------------------------------------------------
       NWT REQUIRED            8 OUTER ITERATIONS 
       AND A TOTAL OF         15 INNER ITERATIONS.
    ------------------------------------------------

 NO OUTPUT CONTROL FOR STRESS PERIOD   46   TIME STEP   19
 
 SOLVING FOR HEAD 
                                                   Max.-Head-Change                         Max.-Flux-Residual
  Residual-Control   Outer-Iter.   Inner-Iter.     Column Row Layer    Maximum-Head-Change  Column Row Layer    Maximum-Flux-Residual          L2-NORM 
          0                 1           2             4    7     1       0.5033721909E-01       4    7    1         0.2642641511E+01      0.6211439611E+01
          0                 2           2             4    7     1      -0.1134565051E-01       4    7    1        -0.6103734192E+00      0.1463976580E+01
          0                 3           2             5    8     1      -0.1774334948E-02       5    8    1        -0.9766526259E-01      0.2366787804E+00
          0                 4           2             4    7     1      -0.1153100878E-02       4    7    1        -0.6188849085E-01      0.1512540757E+00
          0                 5           2             4    7     1      -0.5575439082E-03       5    8    1        -0.2993682293E-01      0.7331269295E-01
          0                 6           2             4    7     1      -0.2802040608E-03       4    7    1        -0.1503710582E-01      0.3683112301E-01
          0                 7           2             4    7     1      -0.1400498545E-03       4    7    1        -0.7515666676E-02      0.1840945371E-01
          0                 8           1             4    7     1      -0.7005347439E-04       4    7    1        -0.3759331198E-02      0.9208328365E-02

    ------------------------------------------------
       NWT REQUIRED            8 OUTER ITERATIONS 
       AND A TOTAL OF         15 INNER ITERATIONS.
    ------------------------------------------------

 NO OUTPUT CONTROL FOR STRESS PERIOD   46   TIME STEP   20
 
 SOLVING FOR HEAD 
                                                   Max.-Head-Change                         Max.-Flux-Residual
  Residual-Control   Outer-Iter.   Inner-Iter.     Column Row Layer    Maximum-Head-Change  Column Row Layer    Maximum-Flux-Residual          L2-NORM 
          0                 1           2             4    7     1       0.4985518311E-01       4    7    1         0.2617976859E+01      0.6101791301E+01
          0                 2           2             4    7     1      -0.1128500301E-01       4    7    1        -0.6071687643E+00      0.1451870461E+01
          0                 3           2             5    8     1      -0.1785777565E-02       5    8    1        -0.9830217322E-01      0.2380613602E+00
          0                 4           2             4    7     1      -0.1154683385E-02       4    7    1        -0.6197371799E-01      0.1514443036E+00
          0                 5           2             4    7     1      -0.5584990245E-03       5    8    1        -0.2998888957E-01      0.7343951815E-01
          0                 6           2             4    7     1      -0.2806545903E-03       4    7    1        -0.1506129240E-01      0.3689027738E-01
          0                 7           2             4    7     1      -0.1402703463E-03       4    7    1        -0.7527502885E-02      0.1843845232E-01
          0                 8           1             4    7     1      -0.7016016576E-04       4    7    1        -0.3765058565E-02      0.9222356926E-02

    ------------------------------------------------
       NWT REQUIRED            8 OUTER ITERATIONS 
       AND A TOTAL OF         15 INNER ITERATIONS.
    ------------------------------------------------

 NO OUTPUT CONTROL FOR STRESS PERIOD   46   TIME STEP   21
 
 SOLVING FOR HEAD 
                                                   Max.-Head-Change                         Max.-Flux-Residual
  Residual-Control   Outer-Iter.   Inner-Iter.     Column Row Layer    Maximum-Head-Change  Column Row Layer    Maximum-Flux-Residual          L2-NORM 
          0                 1           2             4    7     1       0.4936445975E-01       4    7    1         0.2592796156E+01      0.5995875753E+01
          0                 2           2             4    7     1      -0.1122164484E-01       4    7    1        -0.6038123878E+00      0.1439857874E+01
          0                 3           2             5    8     1      -0.1796792350E-02       5    8    1        -0.9891496448E-01      0.2394063931E+00
          0                 4           2             4    7     1      -0.1156132388E-02       4    7    1        -0.6205175081E-01      0.1516189298E+00
          0                 5           2             4    7     1      -0.5593957215E-03       5    8    1        -0.3003772891E-01      0.7355853086E-01
          0                 6           2             4    7     1      -0.2810747722E-03       4    7    1        -0.1508385060E-01      0.3694545287E-01
          0                 7           2             4    7     1      -0.1404774096E-03       4    7    1        -0.7538618677E-02      0.1846568562E-01
          0                 8           1             4    7     1      -0.7026113208E-04       4    7    1        -0.3770478788E-02      0.9235633132E-02

    ------------------------------------------------
       NWT REQUIRED            8 OUTER ITERATIONS 
       AND A TOTAL OF         15 INNER ITERATIONS.
    ------------------------------------------------

 NO OUTPUT CONTROL FOR STRESS PERIOD   46   TIME STEP   22
 
 SOLVING FOR HEAD 
                                                   Max.-Head-Change                         Max.-Flux-Residual
  Residual-Control   Outer-Iter.   Inner-Iter.     Column Row Layer    Maximum-Head-Change  Column Row Layer    Maximum-Flux-Residual          L2-NORM 
          0                 1           2             4    7     1       0.4886959884E-01       4    7    1         0.2567341876E+01      0.5893849047E+01
          0                 2           2             4    7     1      -0.1115817660E-01       4    7    1        -0.6004443497E+00      0.1428236350E+01
          0                 3           2             5    8     1      -0.1807656862E-02       5    8    1        -0.9951896212E-01      0.2407493616E+00
          0                 4           2             4    7     1      -0.1157650940E-02       4    7    1        -0.6213348864E-01      0.1518044893E+00
          0                 5           2             4    7     1      -0.5603275176E-03       5    8    1        -0.3008836701E-01      0.7368203458E-01
          0                 6           2             4    7     1      -0.2815191458E-03       4    7    1        -0.1510770723E-01      0.3700381783E-01
          0                 7           2             4    7     1      -0.1406927710E-03       4    7    1        -0.7550179945E-02      0.1849400953E-01
          0                 8           1             4    7     1      -0.7036595769E-04       4    7    1        -0.3776106204E-02      0.9249417017E-02

    ------------------------------------------------
       NWT REQUIRED            8 OUTER ITERATIONS 
       AND A TOTAL OF         15 INNER ITERATIONS.
    ------------------------------------------------

 NO OUTPUT CONTROL FOR STRESS PERIOD   46   TIME STEP   23
 
 SOLVING FOR HEAD 
                                                   Max.-Head-Change                         Max.-Flux-Residual
  Residual-Control   Outer-Iter.   Inner-Iter.     Column Row Layer    Maximum-Head-Change  Column Row Layer    Maximum-Flux-Residual          L2-NORM 
          0                 1           2             4    7     1       0.4836996601E-01       4    7    1         0.2541584584E+01      0.5795315852E+01
          0                 2           2             4    7     1      -0.1109346206E-01       4    7    1        -0.5970040400E+00      0.1416831090E+01
          0                 3           2             5    8     1      -0.1818254773E-02       5    8    1        -0.1001078025E+00      0.2420728042E+00
          0                 4           2             4    7     1      -0.1159136929E-02       4    7    1        -0.6221345321E-01      0.1519874358E+00
          0                 5           2             4    7     1      -0.5612504743E-03       5    8    1        -0.3013845243E-01      0.7380426190E-01
          0                 6           2             4    7     1      -0.2819574669E-03       4    7    1        -0.1513123924E-01      0.3706139618E-01
          0                 7           2             4    7     1      -0.1409052214E-03       4    7    1        -0.7561585162E-02      0.1852195049E-01
          0                 8           1             4    7     1      -0.7046765343E-04       4    7    1        -0.3781565742E-02      0.9262789579E-02

    ------------------------------------------------
       NWT REQUIRED            8 OUTER ITERATIONS 
       AND A TOTAL OF         15 INNER ITERATIONS.
    ------------------------------------------------

 NO OUTPUT CONTROL FOR STRESS PERIOD   46   TIME STEP   24
 
 SOLVING FOR HEAD 
                                                   Max.-Head-Change                         Max.-Flux-Residual
  Residual-Control   Outer-Iter.   Inner-Iter.     Column Row Layer    Maximum-Head-Change  Column Row Layer    Maximum-Flux-Residual          L2-NORM 
          0                 1           2             4    7     1       0.4788711420E-01       4    7    1         0.2516653182E+01      0.5702548885E+01
          0                 2           2             4    7     1      -0.1104392667E-01       4    7    1        -0.5943733402E+00      0.1407717427E+01
          0                 3           2             5    8     1      -0.1830318341E-02       5    8    1        -0.1007768945E+00      0.2436080027E+00
          0                 4           2             4    7     1      -0.1161921373E-02       4    7    1        -0.6236307651E-01      0.1523426146E+00
          0                 5           2             4    7     1      -0.5627977714E-03       5    8    1        -0.3022197020E-01      0.7400845326E-01
          0                 6           2             4    7     1      -0.2827041448E-03       4    7    1        -0.1517131934E-01      0.3715951618E-01
          0                 7           2             4    7     1      -0.1412760026E-03       4    7    1        -0.7581487278E-02      0.1857070379E-01
          0                 8           1             4    7     1      -0.7065155595E-04       4    7    1        -0.3791436876E-02      0.9286968234E-02

    ------------------------------------------------
       NWT REQUIRED            8 OUTER ITERATIONS 
       AND A TOTAL OF         15 INNER ITERATIONS.
    ------------------------------------------------

 NO OUTPUT CONTROL FOR STRESS PERIOD   46   TIME STEP   25
 
 SOLVING FOR HEAD 
                                                   Max.-Head-Change                         Max.-Flux-Residual
  Residual-Control   Outer-Iter.   Inner-Iter.     Column Row Layer    Maximum-Head-Change  Column Row Layer    Maximum-Flux-Residual          L2-NORM 
          0                 1           2             4    7     1       0.4738825454E-01       4    7    1         0.2490839429E+01      0.5611355027E+01
          0                 2           2             4    7     1      -0.1098310532E-01       4    7    1        -0.5911322903E+00      0.1397481788E+01
          0                 3           2             5    8     1      -0.1841048883E-02       5    8    1        -0.1013721847E+00      0.2449780765E+00
          0                 4           2             4    7     1      -0.1163835415E-02       4    7    1        -0.6246596658E-01      0.1525848176E+00
          0                 5           2             4    7     1      -0.5639284155E-03       5    8    1        -0.3028306160E-01      0.7415777625E-01
          0                 6           2             4    7     1      -0.2832467530E-03       4    7    1        -0.1520044821E-01      0.3723081884E-01
          0                 7           2             4    7     1      -0.1415433412E-03       4    7    1        -0.7595838330E-02      0.1860585956E-01
          0                 8           1             4    7     1      -0.7078383555E-04       4    7    1        -0.3798537792E-02      0.9304361651E-02

    ------------------------------------------------
       NWT REQUIRED            8 OUTER ITERATIONS 
       AND A TOTAL OF         15 INNER ITERATIONS.
    ------------------------------------------------

 NO OUTPUT CONTROL FOR STRESS PERIOD   46   TIME STEP   26
 
 SOLVING FOR HEAD 
                                                   Max.-Head-Change                         Max.-Flux-Residual
  Residual-Control   Outer-Iter.   Inner-Iter.     Column Row Layer    Maximum-Head-Change  Column Row Layer    Maximum-Flux-Residual          L2-NORM 
          0                 1           2             4    7     1       0.4688941284E-01       4    7    1         0.2464984165E+01      0.5523348892E+01
          0                 2           2             4    7     1      -0.1092287030E-01       4    7    1        -0.5879184648E+00      0.1387615716E+01
          0                 3           2             5    8     1      -0.1851704960E-02       5    8    1        -0.1019630016E+00      0.2463504895E+00
          0                 4           2             4    7     1      -0.1165834301E-02       4    7    1        -0.6257338943E-01      0.1528394935E+00
          0                 5           2             4    7     1      -0.5651019786E-03       5    8    1        -0.3034639535E-01      0.7431265083E-01
          0                 6           2             4    7     1      -0.2838107851E-03       4    7    1        -0.1523072692E-01      0.3730494480E-01
          0                 7           2             4    7     1      -0.1418236160E-03       4    7    1        -0.7610883718E-02      0.1864271546E-01
          0                 8           1             4    7     1      -0.7091742912E-04       4    7    1        -0.3805709285E-02      0.9321927555E-02

    ------------------------------------------------
       NWT REQUIRED            8 OUTER ITERATIONS 
       AND A TOTAL OF         15 INNER ITERATIONS.
    ------------------------------------------------

 NO OUTPUT CONTROL FOR STRESS PERIOD   46   TIME STEP   27
 
 SOLVING FOR HEAD 
                                                   Max.-Head-Change                         Max.-Flux-Residual
  Residual-Control   Outer-Iter.   Inner-Iter.     Column Row Layer    Maximum-Head-Change  Column Row Layer    Maximum-Flux-Residual          L2-NORM 
          0                 1           2             4    7     1       0.4639051582E-01       4    7    1         0.2439085967E+01      0.5438308506E+01
          0                 2           2             4    7     1      -0.1086281892E-01       4    7    1        -0.5847105026E+00      0.1378048215E+01
          0                 3           2             5    8     1      -0.1862244097E-02       5    8    1        -0.1025470290E+00      0.2477184855E+00
          0                 4           2             4    7     1      -0.1167888883E-02       4    7    1        -0.6268378192E-01      0.1531027155E+00
          0                 5           2             4    7     1      -0.5663027322E-03       5    8    1        -0.3041113159E-01      0.7447101478E-01
          0                 6           2             4    7     1      -0.2843862376E-03       4    7    1        -0.1526161858E-01      0.3738057843E-01
          0                 7           2             4    7     1      -0.1421086421E-03       4    7    1        -0.7626184193E-02      0.1868019633E-01
          0                 8           1             4    7     1      -0.7106179640E-04       4    7    1        -0.3813458965E-02      0.9340909918E-02

    ------------------------------------------------
       NWT REQUIRED            8 OUTER ITERATIONS 
       AND A TOTAL OF         15 INNER ITERATIONS.
    ------------------------------------------------

 NO OUTPUT CONTROL FOR STRESS PERIOD   46   TIME STEP   28
 
 SOLVING FOR HEAD 
                                                   Max.-Head-Change                         Max.-Flux-Residual
  Residual-Control   Outer-Iter.   Inner-Iter.     Column Row Layer    Maximum-Head-Change  Column Row Layer    Maximum-Flux-Residual          L2-NORM 
          0                 1           2             4    7     1       0.4589279747E-01       4    7    1         0.2413212540E+01      0.5356150546E+01
          0                 2           2             4    7     1      -0.1079222204E-01       4    7    1        -0.5809328971E+00      0.1367386496E+01
          0                 3           2             5    8     1      -0.1871141958E-02       5    8    1        -0.1030403766E+00      0.2488765455E+00
          0                 4           2             4    7     1      -0.1169853229E-02       4    7    1        -0.6278931405E-01      0.1533552540E+00
          0                 5           2             4    7     1      -0.5678207824E-03       5    8    1        -0.3049284354E-01      0.7467101040E-01
          0                 6           2             4    7     1      -0.2852848857E-03       4    7    1        -0.1530985467E-01      0.3749870210E-01
          0                 7           2             4    7     1      -0.1426320410E-03       4    7    1        -0.7654276930E-02      0.1874900998E-01
          0                 8           1             4    7     1      -0.7136162208E-04       4    7    1        -0.3829551238E-02      0.9380327293E-02

    ------------------------------------------------
       NWT REQUIRED            8 OUTER ITERATIONS 
       AND A TOTAL OF         15 INNER ITERATIONS.
    ------------------------------------------------

 NO OUTPUT CONTROL FOR STRESS PERIOD   46   TIME STEP   29
 
 SOLVING FOR HEAD 
                                                   Max.-Head-Change                         Max.-Flux-Residual
  Residual-Control   Outer-Iter.   Inner-Iter.     Column Row Layer    Maximum-Head-Change  Column Row Layer    Maximum-Flux-Residual          L2-NORM 
          0                 1           2             4    7     1       0.4542728099E-01       4    7    1         0.2388986830E+01      0.5280320192E+01
          0                 2           2             4    7     1      -0.1076546869E-01       4    7    1        -0.5795049283E+00      0.1362566709E+01
          0                 3           2             5    8     1      -0.1883769822E-02       5    8    1        -0.1037387874E+00      0.2505492756E+00
          0                 4           2             4    7     1      -0.1173665369E-02       4    7    1        -0.6299399381E-01      0.1538517061E+00
          0                 5           2             4    7     1      -0.5696537078E-03       5    8    1        -0.3059140540E-01      0.7491232553E-01
          0                 6           2             4    7     1      -0.2861003917E-03       4    7    1        -0.1535362903E-01      0.3760590209E-01
          0                 7           2             4    7     1      -0.1429035820E-03       4    7    1        -0.7668853918E-02      0.1878471714E-01
          0                 8           1             4    7     1      -0.7157135211E-04       4    7    1        -0.3840808655E-02      0.9407901889E-02

    ------------------------------------------------
       NWT REQUIRED            8 OUTER ITERATIONS 
       AND A TOTAL OF         15 INNER ITERATIONS.
    ------------------------------------------------

 NO OUTPUT CONTROL FOR STRESS PERIOD   46   TIME STEP   30



 STREAM LISTING     PERIOD     46   STEP       30

 LAYER ROW COL. STREAM  RCH.  FLOW INTO     FLOW TO   FLOW OUT OF   OVRLND.     DIRECT     STREAM       STREAM     STREAM     STREAM   STREAMBED  STREAMBED
                SEG.NO.  NO.  STRM. RCH.    AQUIFER    STRM. RCH.    RUNOFF     PRECIP       ET          HEAD       DEPTH      WIDTH   CONDCTNC.   GRADIENT

   1    1    1     1     1    9.3747E+00  1.4265E-01   9.2321E+00  0.000E+00  0.000E+00  0.000E+00  1.09393E+03  8.788E-01  8.172E+00  3.678E-02  1.293E+00
   1    2    2     1     2    9.2321E+00  2.1921E-01   9.0129E+00  0.000E+00  0.000E+00  0.000E+00  1.08893E+03  8.731E-01  8.085E+00  5.660E-02  1.291E+00
   1    3    3     1     3    9.0129E+00  1.8531E-01   8.8275E+00  0.000E+00  0.000E+00  0.000E+00  1.08329E+03  8.667E-01  7.987E+00  4.792E-02  1.289E+00
   1    3    4     1     4    8.8275E+00  1.6930E-01   8.6583E+00  0.000E+00  0.000E+00  0.000E+00  1.07827E+03  8.609E-01  7.901E+00  4.385E-02  1.287E+00
   1    4    5     2     1    6.6583E+00  2.7605E-01   6.3822E+00  0.000E+00  0.000E+00  0.000E+00  1.07247E+03  5.391E-01  1.200E+01  7.800E-02  1.180E+00
   1    5    6     2     2    6.3822E+00  2.1162E-01   6.1706E+00  0.000E+00  0.000E+00  0.000E+00  1.06704E+03  5.270E-01  1.200E+01  6.000E-02  1.176E+00
   1    6    6     2     3    6.1706E+00  2.1097E-01   5.9596E+00  0.000E+00  0.000E+00  0.000E+00  1.06231E+03  5.162E-01  1.200E+01  6.000E-02  1.172E+00
   1    7    6     2     4    5.9596E+00  2.1032E-01   5.7493E+00  0.000E+00  0.000E+00  0.000E+00  1.05758E+03  5.054E-01  1.200E+01  6.000E-02  1.168E+00
   1    8    6     2     5    5.7493E+00  2.0967E-01   5.5396E+00  0.000E+00  0.000E+00  0.000E+00  1.05285E+03  4.944E-01  1.200E+01  6.000E-02  1.165E+00
   1    3    5     3     1    2.0000E+00  2.8252E-01   1.7175E+00  0.000E+00  0.000E+00  0.000E+00  1.07555E+03  1.909E+00  9.636E+00  7.227E-02  1.955E+00
   1    3    6     3     2    1.7175E+00  2.4905E-01   1.4684E+00  0.000E+00  0.000E+00  0.000E+00  1.07264E+03  1.727E+00  8.909E+00  6.682E-02  1.864E+00
   1    3    7     3     3    1.4684E+00  1.9718E-01   1.2712E+00  0.000E+00  0.000E+00  0.000E+00  1.06987E+03  1.555E+00  8.218E+00  5.547E-02  1.777E+00
   1    4    8     3     4    1.2712E+00  2.2567E-01   1.0456E+00  0.000E+00  0.000E+00  0.000E+00  1.06682E+03  1.364E+00  7.455E+00  6.709E-02  1.682E+00
   1    5    8     3     5    1.0456E+00  1.5790E-01   8.8768E-01  0.000E+00  0.000E+00  0.000E+00  1.06362E+03  1.164E+00  6.655E+00  4.991E-02  1.582E+00
   1    6    8     3     6    8.8768E-01  5.5980E-02   8.3170E-01  0.000E+00  0.000E+00  0.000E+00  1.06158E+03  1.036E+00  6.145E+00  1.844E-02  1.518E+00
   1    5   10     4     1    1.0000E+01  9.0919E-02   9.9091E+00  0.000E+00  0.000E+00  0.000E+00  1.07836E+03  6.368E-01  1.000E+01  2.500E-02  1.212E+00
   1    5    9     4     2    9.9091E+00  1.8158E-01   9.7275E+00  0.000E+00  0.000E+00  0.000E+00  1.07154E+03  6.315E-01  1.000E+01  5.000E-02  1.211E+00
   1    6    8     4     3    9.7275E+00  1.2689E-01   9.6006E+00  0.000E+00  0.000E+00  0.000E+00  1.06381E+03  6.256E-01  1.000E+01  3.500E-02  1.209E+00
   1    6    8     5     1    1.0432E+01  2.2686E-01   1.0205E+01  0.000E+00  0.000E+00  0.000E+00  1.05868E+03  6.790E-01  1.542E+01  6.166E-02  1.226E+00
   1    7    7     5     2    1.0205E+01  2.7894E-01   9.9265E+00  0.000E+00  0.000E+00  0.000E+00  1.05417E+03  6.732E-01  1.519E+01  7.594E-02  1.224E+00
   1    8    7     5     3    9.9265E+00  1.9221E-01   9.7343E+00  0.000E+00  0.000E+00  0.000E+00  1.04992E+03  6.676E-01  1.497E+01  5.241E-02  1.223E+00
   1    8    6     5     4    9.7343E+00  1.3577E-01   9.5985E+00  0.000E+00  0.000E+00  0.000E+00  1.04691E+03  6.637E-01  1.482E+01  3.706E-02  1.221E+00
   1    9    6     6     1    9.5985E+00  2.2097E-01   9.3776E+00  0.000E+00  0.000E+00  0.000E+00  1.04341E+03  6.828E-01  1.200E+01  6.000E-02  1.228E+00
   1   10    7     6     2    9.3776E+00  2.2039E-01   9.1572E+00  0.000E+00  0.000E+00  0.000E+00  1.03885E+03  6.732E-01  1.200E+01  6.000E-02  1.224E+00
   1   11    7     6     3    9.1572E+00  2.1981E-01   8.9374E+00  0.000E+00  0.000E+00  0.000E+00  1.03430E+03  6.636E-01  1.200E+01  6.000E-02  1.221E+00
   1   12    7     6     4    8.9374E+00  2.1923E-01   8.7181E+00  0.000E+00  0.000E+00  0.000E+00  1.02974E+03  6.539E-01  1.200E+01  6.000E-02  1.218E+00
   1   13    7     6     5    8.7181E+00 -6.9371E-03   8.7251E+00  0.000E+00  0.000E+00  0.000E+00  1.02656E+03  6.491E-01  1.200E+01  2.400E-01 -9.635E-03
   1   14    9     7     1    1.5000E+02  1.3925E+00   1.4861E+02  0.000E+00  0.000E+00  0.000E+00  1.03987E+03  2.288E+00  5.529E+01  5.593E-01  8.299E-01
   1   13    8     7     2    1.4861E+02  1.9983E+00   1.4661E+02  0.000E+00  0.000E+00  0.000E+00  1.03478E+03  2.279E+00  5.525E+01  6.147E-01  1.084E+00
   1   13    7     7     3    1.4661E+02  1.7314E+00   1.4488E+02  0.000E+00  0.000E+00  0.000E+00  1.02969E+03  2.269E+00  5.521E+01  5.584E-01  1.034E+00
   1   13    6     8     1    1.5360E+02  1.0822E+00   1.5252E+02  0.000E+00  0.000E+00  0.000E+00  1.02471E+03  2.838E+00  4.115E+01  4.194E-01  8.601E-01
   1   13    5     8     2    1.5252E+02  3.3544E-01   1.5219E+02  0.000E+00  0.000E+00  0.000E+00  1.01846E+03  2.833E+00  4.108E+01  4.187E-01  2.671E-01
   1   13    4     8     3    1.5219E+02 -1.8713E+00   1.5406E+02  0.000E+00  0.000E+00  0.000E+00  1.01221E+03  2.839E+00  4.116E+01  4.194E+00 -1.487E-01
   1   13    3     8     4    1.5406E+02 -3.3561E+00   1.5741E+02  0.000E+00  0.000E+00  0.000E+00  1.00598E+03  2.857E+00  4.142E+01  4.221E+00 -2.650E-01
   1   13    2     8     5    1.5741E+02 -2.5034E+00   1.5992E+02  0.000E+00  0.000E+00  0.000E+00  9.99752E+02  2.877E+00  4.171E+01  4.251E+00 -1.963E-01
   1   13    1     8     6    1.5992E+02 -1.9600E+00   1.6188E+02  0.000E+00  0.000E+00  0.000E+00  9.94767E+02  2.892E+00  4.193E+01  2.564E+00 -2.548E-01
   1    8    6     9     1    5.5396E+00  0.0000E+00   5.5396E+00  0.000E+00  0.000E+00  0.000E+00  1.08034E+03  1.590E+00  4.000E+00  0.000E+00  1.530E+00
   1    8    5     9     2    5.5396E+00  0.0000E+00   5.5396E+00  0.000E+00  0.000E+00  0.000E+00  1.07984E+03  1.590E+00  4.000E+00  0.000E+00  1.530E+00





UNSATURATED ZONE PACKAGE VOLUMETRIC BUDGET FOR  TIME STEP    30 STRESS PERIOD   46
  ------------------------------------------------------------------------------



     CUMULATIVE VOLUMES      L**3       RATES FOR THIS TIME STEP      L**3/T
     ------------------                 ------------------------

           IN:                                      IN:
           ---                                      ---
        INFILTRATION =  2103909106.6033          INFILTRATION =          15.4547

          OUT:                                     OUT:
          ----                                     ----
              UZF ET =  1971210321.2889                UZF ET =          15.3444
        UZF RECHARGE =     1239720.7563          UZF RECHARGE =       0.0000E+00

            IN - OUT =   131459064.5581              IN - OUT =           0.1103

          STORAGE:                                 STORAGE:
          --------                                 --------
      STORAGE CHANGE =   131459034.9699        STORAGE CHANGE =           0.1103

 PERCENT DISCREPANCY IS DIFFERENCE BETWEEN IN-OUT MINUS CHANGE IN STORAGE
 DIVIDED BY THE AVERAGE OF IN AND OUT TIMES 100

 PERCENT DISCREPANCY =           0.00     PERCENT DISCREPANCY =           0.00






1
  VOLUMETRIC BUDGET FOR AGRICULTURAL FIELDS AT  END OF TIME STEP   30, STRESS PERIOD  46
  ------------------------------------------------------------------------------

     CUMULATIVE VOLUMES      L**3       RATES FOR THIS TIME STEP      L**3/T
     ------------------                 ------------------------

           IN:                                      IN:
           ---                                      ---
               AG WELLS  =   837784448.0000                 AG WELLS  =           5.5074
      DIVERSION SEGMENTS =   744409856.0000        DIVERSION SEGMENTS =           5.5396
           GW IRRIGATION =           0.0000             GW IRRIGATION =           0.0000
           SW IRRIGATION =           0.0000             SW IRRIGATION =           0.0000
        SYSTEM LOSSES GW =           0.0000          SYSTEM LOSSES GW =           0.0000
        SYSTEM LOSSES SW =           0.0000          SYSTEM LOSSES SW =           0.0000

                TOTAL IN =  1582194304.0000                  TOTAL IN =          11.0471

          OUT:                                     OUT:
          ----                                     ----
               AG WELLS  =           0.0000                 AG WELLS  =           0.0000
      DIVERSION SEGMENTS =           0.0000        DIVERSION SEGMENTS =           0.0000
           GW IRRIGATION =   837784448.0000             GW IRRIGATION =           5.5074
           SW IRRIGATION =   744423296.0000             SW IRRIGATION =           5.5397
        SYSTEM LOSSES GW =           0.0000          SYSTEM LOSSES GW =           0.0000
        SYSTEM LOSSES SW =           0.0000          SYSTEM LOSSES SW =           0.0000

               TOTAL OUT =  1582207744.0000                 TOTAL OUT =          11.0472

                IN - OUT =      -13440.0000                  IN - OUT =      -1.1063E-04

     PERCENT DISCREPANCY =          -0.00         PERCENT DISCREPANCY =          -0.00



1
  VOLUMETRIC BUDGET FOR ENTIRE MODEL AT END OF TIME STEP   30, STRESS PERIOD  46
  ------------------------------------------------------------------------------

     CUMULATIVE VOLUMES      L**3       RATES FOR THIS TIME STEP      L**3/T
     ------------------                 ------------------------

           IN:                                      IN:
           ---                                      ---
             STORAGE     =  1155529856.0000               STORAGE     =          11.8023
       CONSTANT HEAD     =           0.0000         CONSTANT HEAD     =           0.0000
     HEAD DEP BOUNDS     =    34170176.0000       HEAD DEP BOUNDS     =           0.2896
      STREAM LEAKAGE     =  1405842816.0000        STREAM LEAKAGE     =          11.6568
        UZF RECHARGE     =     1239721.0000          UZF RECHARGE     =           0.0000
               GW ET     =           0.0000                 GW ET     =           0.0000
     SURFACE LEAKAGE     =           0.0000       SURFACE LEAKAGE     =           0.0000
           AG WELLS      =           0.0000             AG WELLS      =           0.0000

                TOTAL IN =  2596782848.0000                  TOTAL IN =          23.7487

          OUT:                                     OUT:
          ----                                     ----
             STORAGE     =   536380064.0000               STORAGE     =           8.2559
       CONSTANT HEAD     =           0.0000         CONSTANT HEAD     =           0.0000
     HEAD DEP BOUNDS     =    34088436.0000       HEAD DEP BOUNDS     =           0.2862
      STREAM LEAKAGE     =  1188467328.0000        STREAM LEAKAGE     =           9.6976
        UZF RECHARGE     =           0.0000          UZF RECHARGE     =           0.0000
               GW ET     =           0.0000                 GW ET     =           0.0000
     SURFACE LEAKAGE     =           0.0000       SURFACE LEAKAGE     =           0.0000
           AG WELLS      =   837784448.0000             AG WELLS      =           5.5074

               TOTAL OUT =  2596720128.0000                 TOTAL OUT =          23.7471

                IN - OUT =       62720.0000                  IN - OUT =       1.6060E-03

     PERCENT DISCREPANCY =           0.00         PERCENT DISCREPANCY =           0.01






         TIME SUMMARY AT END OF TIME STEP   30 IN STRESS PERIOD   46
                    SECONDS     MINUTES      HOURS       DAYS        YEARS
                    -----------------------------------------------------------
   TIME STEP LENGTH  87667.      1461.1      24.352      1.0147     2.77799E-03
 STRESS PERIOD TIME 2.63000E+06  43833.      730.56      30.440     8.33397E-02
         TOTAL TIME 1.18435E+08 1.97392E+06  32899.      1370.8      3.7530    
1
1
                            STRESS PERIOD NO.   47, LENGTH =   2630000.    
                            -----------------------------------------------

                              NUMBER OF TIME STEPS =    30

                               MULTIPLIER FOR DELT =     1.000

                            INITIAL TIME STEP SIZE =   87666.66    

 REUSING NON-PARAMETER GHB CELLS FROM LAST STRESS PERIOD

      2 GHB CELLS

 REUSING STREAM SEGMENT DATA FROM LAST STRESS PERIOD



            AREAL INFILTRATION RATE
 READING ON UNIT   19 WITH FORMAT: (10F4.0)            

            1           2           3           4           5           6           7           8           9          10
 ........................................................................................................................
   1   1.2000E-09   0.000       0.000       0.000       0.000       0.000       0.000       0.000       0.000       0.000    
   2   2.1000E-09  2.0000E-09  8.0000E-10  8.5000E-09   0.000       0.000       0.000       0.000       0.000       0.000    
   3   5.0000E-10  1.1000E-09  8.8000E-09  5.5000E-09   0.000       0.000       0.000       0.000       0.000       0.000    
   4   8.5000E-09  1.1000E-09  1.1000E-09  1.1000E-09  2.0000E-09   0.000       0.000       0.000       0.000       0.000    
   5   8.5000E-09  1.1000E-09  1.1000E-09  1.1000E-09  1.1000E-09   0.000       0.000       0.000       0.000       0.000    
   6   8.5000E-09  5.2000E-09  2.1000E-09  1.1000E-09  1.5000E-09   0.000       0.000       0.000       0.000       0.000    
   7   8.5000E-09  5.2000E-09  2.1000E-09  1.2000E-09  2.0000E-09   0.000       0.000       0.000       0.000       0.000    
   8   5.0000E-10  5.2000E-09  2.1000E-09  1.2000E-09  5.0000E-09   0.000       0.000       0.000       0.000       0.000    
   9   5.0000E-10  5.2000E-09  2.1000E-09  1.2000E-09  5.0000E-09   0.000       0.000       0.000       0.000       0.000    
  10   5.0000E-10  5.2000E-09  2.1000E-09  1.2000E-09  5.8000E-09   0.000       0.000       0.000       0.000       0.000    
  11   1.0000E-10  1.1000E-09  1.1000E-09  1.2000E-09  5.0000E-09   0.000       0.000       0.000       0.000       0.000    
  12   1.1000E-09  1.1000E-09  1.1000E-09  1.1000E-09  2.0000E-09   0.000       0.000       0.000       0.000       0.000    
  13   1.1000E-09  2.2000E-09  2.2000E-09  2.1000E-09  1.0000E-09   0.000       0.000       0.000       0.000       0.000    
  14   2.0000E-10  5.5000E-09  5.5000E-09  5.2000E-09  1.0000E-09   0.000       0.000       0.000       0.000       0.000    
  15    0.000      8.8000E-09  8.8000E-09   0.000       0.000       0.000       0.000       0.000       0.000       0.000    

                  ET RATE =  5.000000E-09

 USING ET EXTINCTION DEPTH FROM PREVIOUS STRESS PERIOD. CURRENT PERIOD IS:      47

 USING EXTINCTION WATER CONTENT FROM PREVIOUS STRESS PERIOD. CURRENT PERIOD IS:      47

 USING AIR ENTRY PRESSURE FROM PREVIOUS STRESS PERIOD. CURRENT PERIOD IS:      47

 USING ROOT PRESSURE HEAD FROM PREVIOUS STRESS PERIOD. CURRENT PERIOD IS:      47

 USING ROOT ACTIVITY FROM PREVIOUS STRESS PERIOD. CURRENT PERIOD IS:      47

 PROCESSING AG STRESS PERIOD DATA

 READING AG STRESS PERIOD DATA

 READING IRRIGATION SEGMENT

 READING IRRIGATION WELL

 READING SUPPLEMENTAL WELL

 END PROCESSING AG STRESS PERIOD DATA OPTIONS
 
 SOLVING FOR HEAD 
                                                   Max.-Head-Change                         Max.-Flux-Residual
  Residual-Control   Outer-Iter.   Inner-Iter.     Column Row Layer    Maximum-Head-Change  Column Row Layer    Maximum-Flux-Residual          L2-NORM 
          0                 1           2             4    7     1       0.5071545674E-01       4    7    1         0.2665092310E+01      0.5899920413E+01
          0                 2           2             4    7     1      -0.4933261661E-02       4    7    1        -0.2665113295E+00      0.5921865619E+00
          0                 3           2             4    7     1       0.3359365297E-03       4    7    1         0.1865578127E-01      0.4147816214E-01
          0                 4           1             4   13     1      -0.2139635566E-04       4   13    1        -0.1258699738E-02      0.2710035939E-02

    ------------------------------------------------
       NWT REQUIRED            4 OUTER ITERATIONS 
       AND A TOTAL OF          7 INNER ITERATIONS.
    ------------------------------------------------

 NO OUTPUT CONTROL FOR STRESS PERIOD   47   TIME STEP    1
 
 SOLVING FOR HEAD 
                                                   Max.-Head-Change                         Max.-Flux-Residual
  Residual-Control   Outer-Iter.   Inner-Iter.     Column Row Layer    Maximum-Head-Change  Column Row Layer    Maximum-Flux-Residual          L2-NORM 
          0                 1           2             4    7     1       0.5013162438E-01       4    7    1         0.2635055114E+01      0.5783428153E+01
          0                 2           2             4    7     1      -0.4876471430E-02       4    7    1        -0.2635076584E+00      0.5788699992E+00
          0                 3           2             4    7     1       0.3320693178E-03       4    7    1         0.1844552374E-01      0.4055388674E-01
          0                 4           1             4   13     1      -0.2160888279E-04       4   13    1        -0.1271078373E-02      0.2703973276E-02

    ------------------------------------------------
       NWT REQUIRED            4 OUTER ITERATIONS 
       AND A TOTAL OF          7 INNER ITERATIONS.
    ------------------------------------------------

 NO OUTPUT CONTROL FOR STRESS PERIOD   47   TIME STEP    2
 
 SOLVING FOR HEAD 
                                                   Max.-Head-Change                         Max.-Flux-Residual
  Residual-Control   Outer-Iter.   Inner-Iter.     Column Row Layer    Maximum-Head-Change  Column Row Layer    Maximum-Flux-Residual          L2-NORM 
          0                 1           2             4    7     1       0.4954304957E-01       4    7    1         0.2604711672E+01      0.5671312156E+01
          0                 2           2             4    7     1      -0.4819219740E-02       4    7    1        -0.2604733530E+00      0.5676338428E+00
          0                 3           2             4    7     1       0.3281706845E-03       4    7    1         0.1823312191E-01      0.3977926005E-01
          0                 4           1             4   13     1      -0.2150566089E-04       4   13    1        -0.1264984095E-02      0.2677336065E-02

    ------------------------------------------------
       NWT REQUIRED            4 OUTER ITERATIONS 
       AND A TOTAL OF          7 INNER ITERATIONS.
    ------------------------------------------------

 NO OUTPUT CONTROL FOR STRESS PERIOD   47   TIME STEP    3
 
 SOLVING FOR HEAD 
                                                   Max.-Head-Change                         Max.-Flux-Residual
  Residual-Control   Outer-Iter.   Inner-Iter.     Column Row Layer    Maximum-Head-Change  Column Row Layer    Maximum-Flux-Residual          L2-NORM 
          0                 1           2             4    7     1       0.4895108299E-01       4    7    1         0.2574136866E+01      0.5563251269E+01
          0                 2           2             4    7     1      -0.4761637989E-02       4    7    1        -0.2574159022E+00      0.5568051366E+00
          0                 3           2             4    7     1       0.3242495763E-03       4    7    1         0.1801909997E-01      0.3903934063E-01
          0                 4           1             4   13     1      -0.2182025805E-04       4   13    1        -0.1283478637E-02      0.2684062757E-02

    ------------------------------------------------
       NWT REQUIRED            4 OUTER ITERATIONS 
       AND A TOTAL OF          7 INNER ITERATIONS.
    ------------------------------------------------

 NO OUTPUT CONTROL FOR STRESS PERIOD   47   TIME STEP    4
 
 SOLVING FOR HEAD 
                                                   Max.-Head-Change                         Max.-Flux-Residual
  Residual-Control   Outer-Iter.   Inner-Iter.     Column Row Layer    Maximum-Head-Change  Column Row Layer    Maximum-Flux-Residual          L2-NORM 
          0                 1           2             4    7     1       0.4835658354E-01       4    7    1         0.2543378914E+01      0.5458995588E+01
          0                 2           2             4    7     1      -0.4703809738E-02       4    7    1        -0.2543401287E+00      0.5463578797E+00
          0                 3           2             4    7     1       0.3203116836E-03       4    7    1         0.1780379552E-01      0.3832308470E-01
          0                 4           1             4   13     1      -0.2194677819E-04       4   13    1        -0.1290886398E-02      0.2679139313E-02

    ------------------------------------------------
       NWT REQUIRED            4 OUTER ITERATIONS 
       AND A TOTAL OF          7 INNER ITERATIONS.
    ------------------------------------------------

 NO OUTPUT CONTROL FOR STRESS PERIOD   47   TIME STEP    5
 
 SOLVING FOR HEAD 
                                                   Max.-Head-Change                         Max.-Flux-Residual
  Residual-Control   Outer-Iter.   Inner-Iter.     Column Row Layer    Maximum-Head-Change  Column Row Layer    Maximum-Flux-Residual          L2-NORM 
          0                 1           2             4    7     1       0.4776061226E-01       4    7    1         0.2512496894E+01      0.5358349630E+01
          0                 2           2             4    7     1      -0.4645838210E-02       4    7    1        -0.2512519410E+00      0.5362729878E+00
          0                 3           2             4    7     1       0.3163640349E-03       4    7    1         0.1758762216E-01      0.3763217996E-01
          0                 4           1             4   13     1      -0.2207269897E-04       4   13    1        -0.1298295071E-02      0.2673020016E-02

    ------------------------------------------------
       NWT REQUIRED            4 OUTER ITERATIONS 
       AND A TOTAL OF          7 INNER ITERATIONS.
    ------------------------------------------------

 NO OUTPUT CONTROL FOR STRESS PERIOD   47   TIME STEP    6
 
 SOLVING FOR HEAD 
                                                   Max.-Head-Change                         Max.-Flux-Residual
  Residual-Control   Outer-Iter.   Inner-Iter.     Column Row Layer    Maximum-Head-Change  Column Row Layer    Maximum-Flux-Residual          L2-NORM 
          0                 1           2             4    7     1       0.4716375042E-01       4    7    1         0.2481524000E+01      0.5261847469E+01
          0                 2           2             4    7     1      -0.4587779953E-02       4    7    1        -0.2481546592E+00      0.5265450582E+00
          0                 3           2             4    7     1       0.3124104817E-03       4    7    1         0.1737081227E-01      0.3698832365E-01
          0                 4           1             4   13     1      -0.2207057440E-04       4   13    1        -0.1298137860E-02      0.2648847612E-02

    ------------------------------------------------
       NWT REQUIRED            4 OUTER ITERATIONS 
       AND A TOTAL OF          7 INNER ITERATIONS.
    ------------------------------------------------

 NO OUTPUT CONTROL FOR STRESS PERIOD   47   TIME STEP    7
 
 SOLVING FOR HEAD 
                                                   Max.-Head-Change                         Max.-Flux-Residual
  Residual-Control   Outer-Iter.   Inner-Iter.     Column Row Layer    Maximum-Head-Change  Column Row Layer    Maximum-Flux-Residual          L2-NORM 
          0                 1           2             4    7     1       0.4656692017E-01       4    7    1         0.2450512188E+01      0.5168585260E+01
          0                 2           2             4    7     1      -0.4529724681E-02       4    7    1        -0.2450534799E+00      0.5171576972E+00
          0                 3           2             4    7     1       0.3084571324E-03       4    7    1         0.1715372960E-01      0.3636002113E-01
          0                 4           1             4   13     1      -0.2212087953E-04       4   13    1        -0.1301019558E-02      0.2647149744E-02

    ------------------------------------------------
       NWT REQUIRED            4 OUTER ITERATIONS 
       AND A TOTAL OF          7 INNER ITERATIONS.
    ------------------------------------------------

 NO OUTPUT CONTROL FOR STRESS PERIOD   47   TIME STEP    8
 
 SOLVING FOR HEAD 
                                                   Max.-Head-Change                         Max.-Flux-Residual
  Residual-Control   Outer-Iter.   Inner-Iter.     Column Row Layer    Maximum-Head-Change  Column Row Layer    Maximum-Flux-Residual          L2-NORM 
          0                 1           2             4    7     1       0.4597098823E-01       4    7    1         0.2419509274E+01      0.5077647945E+01
          0                 2           2             4    7     1      -0.4471756711E-02       4    7    1        -0.2419531849E+00      0.5080534893E+00
          0                 3           2             4    7     1       0.3045097293E-03       4    7    1         0.1693670891E-01      0.3573570989E-01
          0                 4           1             4   13     1      -0.2228271725E-04       4   13    1        -0.1310536979E-02      0.2646754428E-02

    ------------------------------------------------
       NWT REQUIRED            4 OUTER ITERATIONS 
       AND A TOTAL OF          7 INNER ITERATIONS.
    ------------------------------------------------

 NO OUTPUT CONTROL FOR STRESS PERIOD   47   TIME STEP    9
 
 SOLVING FOR HEAD 
                                                   Max.-Head-Change                         Max.-Flux-Residual
  Residual-Control   Outer-Iter.   Inner-Iter.     Column Row Layer    Maximum-Head-Change  Column Row Layer    Maximum-Flux-Residual          L2-NORM 
          0                 1           2             4    7     1       0.4537649317E-01       4    7    1         0.2388545647E+01      0.4989595631E+01
          0                 2           2             4    7     1      -0.4413928438E-02       4    7    1        -0.2388568137E+00      0.4992384047E+00
          0                 3           2             4    7     1       0.3005718392E-03       4    7    1         0.1671996290E-01      0.3513164582E-01
          0                 4           1             4   13     1      -0.2244573824E-04       4   13    1        -0.1320132491E-02      0.2647432193E-02

    ------------------------------------------------
       NWT REQUIRED            4 OUTER ITERATIONS 
       AND A TOTAL OF          7 INNER ITERATIONS.
    ------------------------------------------------

 NO OUTPUT CONTROL FOR STRESS PERIOD   47   TIME STEP   10
 
 SOLVING FOR HEAD 
                                                   Max.-Head-Change                         Max.-Flux-Residual
  Residual-Control   Outer-Iter.   Inner-Iter.     Column Row Layer    Maximum-Head-Change  Column Row Layer    Maximum-Flux-Residual          L2-NORM 
          0                 1           2             4    7     1       0.4478405004E-01       4    7    1         0.2357656506E+01      0.4904276650E+01
          0                 2           2             4    7     1      -0.4356299698E-02       4    7    1        -0.2357678869E+00      0.4906974305E+00
          0                 3           2             4    7     1       0.2966475373E-03       4    7    1         0.1650373805E-01      0.3454689169E-01
          0                 4           1             4   13     1      -0.2259023637E-04       4   13    1        -0.1328619233E-02      0.2647314145E-02

    ------------------------------------------------
       NWT REQUIRED            4 OUTER ITERATIONS 
       AND A TOTAL OF          7 INNER ITERATIONS.
    ------------------------------------------------

 NO OUTPUT CONTROL FOR STRESS PERIOD   47   TIME STEP   11
 
 SOLVING FOR HEAD 
                                                   Max.-Head-Change                         Max.-Flux-Residual
  Residual-Control   Outer-Iter.   Inner-Iter.     Column Row Layer    Maximum-Head-Change  Column Row Layer    Maximum-Flux-Residual          L2-NORM 
          0                 1           2             4    7     1       0.4419422628E-01       4    7    1         0.2326873740E+01      0.4821563462E+01
          0                 2           2             4    7     1      -0.4298925695E-02       4    7    1        -0.2326895938E+00      0.4824175326E+00
          0                 3           2             4    7     1       0.2927405827E-03       4    7    1         0.1628825761E-01      0.3398052067E-01
          0                 4           1             4   13     1      -0.2276878440E-04       4   13    1        -0.1339126957E-02      0.2649302431E-02

    ------------------------------------------------
       NWT REQUIRED            4 OUTER ITERATIONS 
       AND A TOTAL OF          7 INNER ITERATIONS.
    ------------------------------------------------

 NO OUTPUT CONTROL FOR STRESS PERIOD   47   TIME STEP   12
 
 SOLVING FOR HEAD 
                                                   Max.-Head-Change                         Max.-Flux-Residual
  Residual-Control   Outer-Iter.   Inner-Iter.     Column Row Layer    Maximum-Head-Change  Column Row Layer    Maximum-Flux-Residual          L2-NORM 
          0                 1           2             4    7     1       0.4360753955E-01       4    7    1         0.2296226770E+01      0.4741330152E+01
          0                 2           2             4    7     1      -0.4241856789E-02       4    7    1        -0.2296248770E+00      0.4743861446E+00
          0                 3           2             4    7     1       0.2888544045E-03       4    7    1         0.1607372752E-01      0.3343184163E-01
          0                 4           1             4   13     1      -0.2293951004E-04       4   13    1        -0.1349192987E-02      0.2650760414E-02

    ------------------------------------------------
       NWT REQUIRED            4 OUTER ITERATIONS 
       AND A TOTAL OF          7 INNER ITERATIONS.
    ------------------------------------------------

 NO OUTPUT CONTROL FOR STRESS PERIOD   47   TIME STEP   13
 
 SOLVING FOR HEAD 
                                                   Max.-Head-Change                         Max.-Flux-Residual
  Residual-Control   Outer-Iter.   Inner-Iter.     Column Row Layer    Maximum-Head-Change  Column Row Layer    Maximum-Flux-Residual          L2-NORM 
          0                 1           2             4    7     1       0.4302446413E-01       4    7    1         0.2265742437E+01      0.4663460721E+01
          0                 2           2             4    7     1      -0.4185139120E-02       4    7    1        -0.2265764208E+00      0.4665917990E+00
          0                 3           2             4    7     1       0.2849921449E-03       4    7    1         0.1586033572E-01      0.3289952971E-01
          0                 4           1             4   13     1      -0.2311228263E-04       4   13    1        -0.1359411244E-02      0.2652012890E-02

    ------------------------------------------------
       NWT REQUIRED            4 OUTER ITERATIONS 
       AND A TOTAL OF          7 INNER ITERATIONS.
    ------------------------------------------------

 NO OUTPUT CONTROL FOR STRESS PERIOD   47   TIME STEP   14
 
 SOLVING FOR HEAD 
                                                   Max.-Head-Change                         Max.-Flux-Residual
  Residual-Control   Outer-Iter.   Inner-Iter.     Column Row Layer    Maximum-Head-Change  Column Row Layer    Maximum-Flux-Residual          L2-NORM 
          0                 1           2             4    7     1       0.4244556137E-01       4    7    1         0.2235452611E+01      0.4587847812E+01
          0                 2           2             4    7     1      -0.4128827298E-02       4    7    1        -0.2235474128E+00      0.4589863578E+00
          0                 3           2             4    7     1       0.2811575216E-03       4    7    1         0.1564830528E-01      0.3247709684E-01
          0                 4           1             4   13     1      -0.2578399013E-04       4   13    1        -0.1516492275E-02      0.2876810945E-02

    ------------------------------------------------
       NWT REQUIRED            4 OUTER ITERATIONS 
       AND A TOTAL OF          7 INNER ITERATIONS.
    ------------------------------------------------

 NO OUTPUT CONTROL FOR STRESS PERIOD   47   TIME STEP   15
 
 SOLVING FOR HEAD 
                                                   Max.-Head-Change                         Max.-Flux-Residual
  Residual-Control   Outer-Iter.   Inner-Iter.     Column Row Layer    Maximum-Head-Change  Column Row Layer    Maximum-Flux-Residual          L2-NORM 
          0                 1           2             4    7     1       0.4187107839E-01       4    7    1         0.2205371840E+01      0.4514385323E+01
          0                 2           2             4    7     1      -0.4072945368E-02       4    7    1        -0.2205393080E+00      0.4516330286E+00
          0                 3           2             4    7     1       0.2773521738E-03       4    7    1         0.1543773813E-01      0.3197057688E-01
          0                 4           1             4   13     1      -0.2575019374E-04       4   13    1        -0.1514484936E-02      0.2864727522E-02

    ------------------------------------------------
       NWT REQUIRED            4 OUTER ITERATIONS 
       AND A TOTAL OF          7 INNER ITERATIONS.
    ------------------------------------------------

 NO OUTPUT CONTROL FOR STRESS PERIOD   47   TIME STEP   16
 
 SOLVING FOR HEAD 
                                                   Max.-Head-Change                         Max.-Flux-Residual
  Residual-Control   Outer-Iter.   Inner-Iter.     Column Row Layer    Maximum-Head-Change  Column Row Layer    Maximum-Flux-Residual          L2-NORM 
          0                 1           2             4    7     1       0.4130150048E-01       4    7    1         0.2175527496E+01      0.4442988803E+01
          0                 2           2             4    7     1      -0.4017540538E-02       4    7    1        -0.2175548440E+00      0.4444937121E+00
          0                 3           2             4    7     1       0.2735793142E-03       4    7    1         0.1522882584E-01      0.3147929584E-01
          0                 4           1             4   13     1      -0.2572359680E-04       4   13    1        -0.1512942771E-02      0.2854375880E-02

    ------------------------------------------------
       NWT REQUIRED            4 OUTER ITERATIONS 
       AND A TOTAL OF          7 INNER ITERATIONS.
    ------------------------------------------------

 NO OUTPUT CONTROL FOR STRESS PERIOD   47   TIME STEP   17
 
 SOLVING FOR HEAD 
                                                   Max.-Head-Change                         Max.-Flux-Residual
  Residual-Control   Outer-Iter.   Inner-Iter.     Column Row Layer    Maximum-Head-Change  Column Row Layer    Maximum-Flux-Residual          L2-NORM 
          0                 1           2             4    7     1       0.4073699912E-01       4    7    1         0.2145930181E+01      0.4373558104E+01
          0                 2           2             4    7     1      -0.3962629492E-02       4    7    1        -0.2145950812E+00      0.4375474253E+00
          0                 3           2             4    7     1       0.2698400798E-03       4    7    1         0.1502164265E-01      0.3100218043E-01
          0                 4           1             4   13     1      -0.2575540183E-04       4   13    1        -0.1514836493E-02      0.2846393298E-02

    ------------------------------------------------
       NWT REQUIRED            4 OUTER ITERATIONS 
       AND A TOTAL OF          7 INNER ITERATIONS.
    ------------------------------------------------

 NO OUTPUT CONTROL FOR STRESS PERIOD   47   TIME STEP   18
 
 SOLVING FOR HEAD 
                                                   Max.-Head-Change                         Max.-Flux-Residual
  Residual-Control   Outer-Iter.   Inner-Iter.     Column Row Layer    Maximum-Head-Change  Column Row Layer    Maximum-Flux-Residual          L2-NORM 
          0                 1           2             4    7     1       0.4017799312E-01       4    7    1         0.2116603347E+01      0.4306011978E+01
          0                 2           2             4    7     1      -0.3908252975E-02       4    7    1        -0.2116623651E+00      0.4307901414E+00
          0                 3           2             4    7     1       0.2661372455E-03       4    7    1         0.1481635275E-01      0.3053792718E-01
          0                 4           1             4   13     1      -0.2571375445E-04       4   13    1        -0.1512371305E-02      0.2835900262E-02

    ------------------------------------------------
       NWT REQUIRED            4 OUTER ITERATIONS 
       AND A TOTAL OF          7 INNER ITERATIONS.
    ------------------------------------------------

 NO OUTPUT CONTROL FOR STRESS PERIOD   47   TIME STEP   19
 
 SOLVING FOR HEAD 
                                                   Max.-Head-Change                         Max.-Flux-Residual
  Residual-Control   Outer-Iter.   Inner-Iter.     Column Row Layer    Maximum-Head-Change  Column Row Layer    Maximum-Flux-Residual          L2-NORM 
          0                 1           2             4    7     1       0.3962459649E-01       4    7    1         0.2087554147E+01      0.4240275329E+01
          0                 2           2             4    7     1      -0.3854422079E-02       4    7    1        -0.2087574112E+00      0.4242127664E+00
          0                 3           2             4    7     1       0.2624715668E-03       4    7    1         0.1461300622E-01      0.3008629671E-01
          0                 4           1             4   13     1      -0.2567237020E-04       4   13    1        -0.1509935073E-02      0.2825755904E-02

    ------------------------------------------------
       NWT REQUIRED            4 OUTER ITERATIONS 
       AND A TOTAL OF          7 INNER ITERATIONS.
    ------------------------------------------------

 NO OUTPUT CONTROL FOR STRESS PERIOD   47   TIME STEP   20
 
 SOLVING FOR HEAD 
                                                   Max.-Head-Change                         Max.-Flux-Residual
  Residual-Control   Outer-Iter.   Inner-Iter.     Column Row Layer    Maximum-Head-Change  Column Row Layer    Maximum-Flux-Residual          L2-NORM 
          0                 1           2             4    7     1       0.3907729398E-01       4    7    1         0.2058810339E+01      0.4176269925E+01
          0                 2           2             4    7     1      -0.3801183925E-02       4    7    1        -0.2058829955E+00      0.4177940705E+00
          0                 3           2             4    7     1       0.2588462500E-03       4    7    1         0.1441179736E-01      0.2964441426E-01
          0                 4           1             4   13     1      -0.2569802243E-04       4   13    1        -0.1511019200E-02      0.2821385206E-02

    ------------------------------------------------
       NWT REQUIRED            4 OUTER ITERATIONS 
       AND A TOTAL OF          7 INNER ITERATIONS.
    ------------------------------------------------

 NO OUTPUT CONTROL FOR STRESS PERIOD   47   TIME STEP   21
 
 SOLVING FOR HEAD 
                                                   Max.-Head-Change                         Max.-Flux-Residual
  Residual-Control   Outer-Iter.   Inner-Iter.     Column Row Layer    Maximum-Head-Change  Column Row Layer    Maximum-Flux-Residual          L2-NORM 
          0                 1           2             4    7     1       0.3853600312E-01       4    7    1         0.2030367928E+01      0.4113942789E+01
          0                 2           2             4    7     1      -0.3748530598E-02       4    7    1        -0.2030387188E+00      0.4115766296E+00
          0                 3           2             4    7     1       0.2552607589E-03       4    7    1         0.1421269824E-01      0.2921887384E-01
          0                 4           1             4   13     1      -0.2568610222E-04       4   13    1        -0.1510478034E-02      0.2807033425E-02

    ------------------------------------------------
       NWT REQUIRED            4 OUTER ITERATIONS 
       AND A TOTAL OF          7 INNER ITERATIONS.
    ------------------------------------------------

 NO OUTPUT CONTROL FOR STRESS PERIOD   47   TIME STEP   22
 
 SOLVING FOR HEAD 
                                                   Max.-Head-Change                         Max.-Flux-Residual
  Residual-Control   Outer-Iter.   Inner-Iter.     Column Row Layer    Maximum-Head-Change  Column Row Layer    Maximum-Flux-Residual          L2-NORM 
          0                 1           2             4    7     1       0.3800102826E-01       4    7    1         0.2002244483E+01      0.4053209197E+01
          0                 2           2             4    7     1      -0.3696491602E-02       4    7    1        -0.2002263380E+00      0.4055019769E+00
          0                 3           2             4    7     1       0.2517171013E-03       4    7    1         0.1401583184E-01      0.2879916874E-01
          0                 4           1             4   13     1      -0.2569173071E-04       4   13    1        -0.1510685707E-02      0.2805259405E-02

    ------------------------------------------------
       NWT REQUIRED            4 OUTER ITERATIONS 
       AND A TOTAL OF          7 INNER ITERATIONS.
    ------------------------------------------------

 NO OUTPUT CONTROL FOR STRESS PERIOD   47   TIME STEP   23
 
 SOLVING FOR HEAD 
                                                   Max.-Head-Change                         Max.-Flux-Residual
  Residual-Control   Outer-Iter.   Inner-Iter.     Column Row Layer    Maximum-Head-Change  Column Row Layer    Maximum-Flux-Residual          L2-NORM 
          0                 1           2             4    7     1       0.3747251245E-01       4    7    1         0.1974448505E+01      0.3994020785E+01
          0                 2           2             4    7     1      -0.3645080889E-02       4    7    1        -0.1974467035E+00      0.3995812690E+00
          0                 3           2             4    7     1       0.2482162276E-03       4    7    1         0.1382125769E-01      0.2839460712E-01
          0                 4           1             4   13     1      -0.2568350274E-04       4   13    1        -0.1510210133E-02      0.2796628065E-02

    ------------------------------------------------
       NWT REQUIRED            4 OUTER ITERATIONS 
       AND A TOTAL OF          7 INNER ITERATIONS.
    ------------------------------------------------

 NO OUTPUT CONTROL FOR STRESS PERIOD   47   TIME STEP   24
 
 SOLVING FOR HEAD 
                                                   Max.-Head-Change                         Max.-Flux-Residual
  Residual-Control   Outer-Iter.   Inner-Iter.     Column Row Layer    Maximum-Head-Change  Column Row Layer    Maximum-Flux-Residual          L2-NORM 
          0                 1           2             4    7     1       0.3695057657E-01       4    7    1         0.1946987411E+01      0.3936302388E+01
          0                 2           2             4    7     1      -0.3594310217E-02       4    7    1        -0.1947005570E+00      0.3938081836E+00
          0                 3           2             4    7     1       0.2447589381E-03       4    7    1         0.1362902769E-01      0.2799841694E-01
          0                 4           1             4   13     1      -0.2566057991E-04       4   13    1        -0.1508852046E-02      0.2789477000E-02

    ------------------------------------------------
       NWT REQUIRED            4 OUTER ITERATIONS 
       AND A TOTAL OF          7 INNER ITERATIONS.
    ------------------------------------------------

 NO OUTPUT CONTROL FOR STRESS PERIOD   47   TIME STEP   25
 
 SOLVING FOR HEAD 
                                                   Max.-Head-Change                         Max.-Flux-Residual
  Residual-Control   Outer-Iter.   Inner-Iter.     Column Row Layer    Maximum-Head-Change  Column Row Layer    Maximum-Flux-Residual          L2-NORM 
          0                 1           2             4    7     1       0.3643531660E-01       4    7    1         0.1919867467E+01      0.3880005416E+01
          0                 2           2             4    7     1      -0.3544188921E-02       4    7    1        -0.1919885254E+00      0.3881729805E+00
          0                 3           2             4    7     1       0.2413458686E-03       4    7    1         0.1343918574E-01      0.2761163614E-01
          0                 4           1             4   13     1      -0.2568409516E-04       4   13    1        -0.1510248292E-02      0.2782681559E-02

    ------------------------------------------------
       NWT REQUIRED            4 OUTER ITERATIONS 
       AND A TOTAL OF          7 INNER ITERATIONS.
    ------------------------------------------------

 NO OUTPUT CONTROL FOR STRESS PERIOD   47   TIME STEP   26
 
 SOLVING FOR HEAD 
                                                   Max.-Head-Change                         Max.-Flux-Residual
  Residual-Control   Outer-Iter.   Inner-Iter.     Column Row Layer    Maximum-Head-Change  Column Row Layer    Maximum-Flux-Residual          L2-NORM 
          0                 1           2             4    7     1       0.3592695103E-01       4    7    1         0.1893100938E+01      0.3825082798E+01
          0                 2           2             4    7     1      -0.3494738275E-02       4    7    1        -0.1893118353E+00      0.3826842678E+00
          0                 3           2             4    7     1       0.2379784688E-03       4    7    1         0.1325181773E-01      0.2723603952E-01
          0                 4           1             4   13     1      -0.2567528292E-04       4   13    1        -0.1509733220E-02      0.2775952469E-02

    ------------------------------------------------
       NWT REQUIRED            4 OUTER ITERATIONS 
       AND A TOTAL OF          7 INNER ITERATIONS.
    ------------------------------------------------

 NO OUTPUT CONTROL FOR STRESS PERIOD   47   TIME STEP   27
 
 SOLVING FOR HEAD 
                                                   Max.-Head-Change                         Max.-Flux-Residual
  Residual-Control   Outer-Iter.   Inner-Iter.     Column Row Layer    Maximum-Head-Change  Column Row Layer    Maximum-Flux-Residual          L2-NORM 
          0                 1           2             4    7     1       0.3542540592E-01       4    7    1         0.1866684579E+01      0.3771492437E+01
          0                 2           2             4    7     1      -0.3445951066E-02       4    7    1        -0.1866701621E+00      0.3773245597E+00
          0                 3           2             4    7     1       0.2346562459E-03       4    7    1         0.1306690086E-01      0.2686860514E-01
          0                 4           1             4   13     1      -0.2566464037E-04       4   13    1        -0.1509119001E-02      0.2768477001E-02

    ------------------------------------------------
       NWT REQUIRED            4 OUTER ITERATIONS 
       AND A TOTAL OF          7 INNER ITERATIONS.
    ------------------------------------------------

 NO OUTPUT CONTROL FOR STRESS PERIOD   47   TIME STEP   28
 
 SOLVING FOR HEAD 
                                                   Max.-Head-Change                         Max.-Flux-Residual
  Residual-Control   Outer-Iter.   Inner-Iter.     Column Row Layer    Maximum-Head-Change  Column Row Layer    Maximum-Flux-Residual          L2-NORM 
          0                 1           2             4    7     1       0.3493086309E-01       4    7    1         0.1840629130E+01      0.3719176626E+01
          0                 2           2             4    7     1      -0.3397844991E-02       4    7    1        -0.1840645801E+00      0.3720924755E+00
          0                 3           2             4    7     1       0.2313804061E-03       4    7    1         0.1288451041E-01      0.2651007452E-01
          0                 4           1             4   13     1      -0.2566166244E-04       4   13    1        -0.1508944335E-02      0.2762454298E-02

    ------------------------------------------------
       NWT REQUIRED            4 OUTER ITERATIONS 
       AND A TOTAL OF          7 INNER ITERATIONS.
    ------------------------------------------------

 NO OUTPUT CONTROL FOR STRESS PERIOD   47   TIME STEP   29
 
 SOLVING FOR HEAD 
                                                   Max.-Head-Change                         Max.-Flux-Residual
  Residual-Control   Outer-Iter.   Inner-Iter.     Column Row Layer    Maximum-Head-Change  Column Row Layer    Maximum-Flux-Residual          L2-NORM 
          0                 1           2             4    7     1       0.3444321592E-01       4    7    1         0.1814929445E+01      0.3668619860E+01
          0                 2           2             4    7     1      -0.3350409677E-02       4    7    1        -0.1814945746E+00      0.3670036384E+00
          0                 3           2             4    7     1       0.2281502421E-03       4    7    1         0.1270461030E-01      0.2617723689E-01
          0                 4           1             4   13     1      -0.2561394268E-04       4   13    1        -0.1506068971E-02      0.2752935270E-02

    ------------------------------------------------
       NWT REQUIRED            4 OUTER ITERATIONS 
       AND A TOTAL OF          7 INNER ITERATIONS.
    ------------------------------------------------

 NO OUTPUT CONTROL FOR STRESS PERIOD   47   TIME STEP   30



 STREAM LISTING     PERIOD     47   STEP       30

 LAYER ROW COL. STREAM  RCH.  FLOW INTO     FLOW TO   FLOW OUT OF   OVRLND.     DIRECT     STREAM       STREAM     STREAM     STREAM   STREAMBED  STREAMBED
                SEG.NO.  NO.  STRM. RCH.    AQUIFER    STRM. RCH.    RUNOFF     PRECIP       ET          HEAD       DEPTH      WIDTH   CONDCTNC.   GRADIENT

   1    1    1     1     1    7.9710E+00  1.2901E-01   7.8420E+00  0.000E+00  0.000E+00  0.000E+00  1.09388E+03  8.328E-01  7.480E+00  3.366E-02  1.278E+00
   1    2    2     1     2    7.8420E+00  1.9811E-01   7.6439E+00  0.000E+00  0.000E+00  0.000E+00  1.08889E+03  8.271E-01  7.395E+00  5.177E-02  1.276E+00
   1    3    3     1     3    7.6439E+00  1.6733E-01   7.4765E+00  0.000E+00  0.000E+00  0.000E+00  1.08324E+03  8.206E-01  7.300E+00  4.380E-02  1.274E+00
   1    3    4     1     4    7.4765E+00  1.5276E-01   7.3238E+00  0.000E+00  0.000E+00  0.000E+00  1.07822E+03  8.148E-01  7.215E+00  4.004E-02  1.272E+00
   1    4    5     2     1    5.3238E+00  2.7067E-01   5.0531E+00  0.000E+00  0.000E+00  0.000E+00  1.07240E+03  4.701E-01  1.200E+01  7.800E-02  1.157E+00
   1    5    6     2     2    5.0531E+00  2.0742E-01   4.8457E+00  0.000E+00  0.000E+00  0.000E+00  1.06697E+03  4.570E-01  1.200E+01  6.000E-02  1.152E+00
   1    6    6     2     3    4.8457E+00  2.0672E-01   4.6390E+00  0.000E+00  0.000E+00  0.000E+00  1.06224E+03  4.454E-01  1.200E+01  6.000E-02  1.148E+00
   1    7    6     2     4    4.6390E+00  2.0602E-01   4.4330E+00  0.000E+00  0.000E+00  0.000E+00  1.05751E+03  4.337E-01  1.200E+01  6.000E-02  1.145E+00
   1    8    6     2     5    4.4330E+00  2.0530E-01   4.2276E+00  0.000E+00  0.000E+00  0.000E+00  1.05278E+03  4.218E-01  1.200E+01  6.000E-02  1.141E+00
   1    3    5     3     1    2.0000E+00  2.8252E-01   1.7175E+00  0.000E+00  0.000E+00  0.000E+00  1.07555E+03  1.909E+00  9.636E+00  7.227E-02  1.955E+00
   1    3    6     3     2    1.7175E+00  2.4905E-01   1.4684E+00  0.000E+00  0.000E+00  0.000E+00  1.07264E+03  1.727E+00  8.909E+00  6.682E-02  1.864E+00
   1    3    7     3     3    1.4684E+00  1.9718E-01   1.2712E+00  0.000E+00  0.000E+00  0.000E+00  1.06987E+03  1.555E+00  8.218E+00  5.547E-02  1.777E+00
   1    4    8     3     4    1.2712E+00  2.2567E-01   1.0456E+00  0.000E+00  0.000E+00  0.000E+00  1.06682E+03  1.364E+00  7.455E+00  6.709E-02  1.682E+00
   1    5    8     3     5    1.0456E+00  1.5790E-01   8.8768E-01  0.000E+00  0.000E+00  0.000E+00  1.06362E+03  1.164E+00  6.655E+00  4.991E-02  1.582E+00
   1    6    8     3     6    8.8768E-01  5.5980E-02   8.3170E-01  0.000E+00  0.000E+00  0.000E+00  1.06158E+03  1.036E+00  6.145E+00  1.844E-02  1.518E+00
   1    5   10     4     1    1.0000E+01  9.0919E-02   9.9091E+00  0.000E+00  0.000E+00  0.000E+00  1.07836E+03  6.368E-01  1.000E+01  2.500E-02  1.212E+00
   1    5    9     4     2    9.9091E+00  1.8158E-01   9.7275E+00  0.000E+00  0.000E+00  0.000E+00  1.07154E+03  6.315E-01  1.000E+01  5.000E-02  1.211E+00
   1    6    8     4     3    9.7275E+00  1.2689E-01   9.6006E+00  0.000E+00  0.000E+00  0.000E+00  1.06381E+03  6.256E-01  1.000E+01  3.500E-02  1.209E+00
   1    6    8     5     1    1.0432E+01  2.2686E-01   1.0205E+01  0.000E+00  0.000E+00  0.000E+00  1.05868E+03  6.790E-01  1.542E+01  6.166E-02  1.226E+00
   1    7    7     5     2    1.0205E+01  2.7894E-01   9.9265E+00  0.000E+00  0.000E+00  0.000E+00  1.05417E+03  6.732E-01  1.519E+01  7.594E-02  1.224E+00
   1    8    7     5     3    9.9265E+00  1.9221E-01   9.7343E+00  0.000E+00  0.000E+00  0.000E+00  1.04992E+03  6.676E-01  1.497E+01  5.241E-02  1.223E+00
   1    8    6     5     4    9.7343E+00  1.3577E-01   9.5985E+00  0.000E+00  0.000E+00  0.000E+00  1.04691E+03  6.637E-01  1.482E+01  3.706E-02  1.221E+00
   1    9    6     6     1    1.3287E+01  2.2996E-01   1.3057E+01  0.000E+00  0.000E+00  0.000E+00  1.04356E+03  8.327E-01  1.200E+01  6.000E-02  1.278E+00
   1   10    7     6     2    1.3057E+01  2.2944E-01   1.2828E+01  0.000E+00  0.000E+00  0.000E+00  1.03901E+03  8.239E-01  1.200E+01  6.000E-02  1.275E+00
   1   11    7     6     3    1.2828E+01  2.2891E-01   1.2599E+01  0.000E+00  0.000E+00  0.000E+00  1.03445E+03  8.152E-01  1.200E+01  6.000E-02  1.272E+00
   1   12    7     6     4    1.2599E+01  2.2838E-01   1.2370E+01  0.000E+00  0.000E+00  0.000E+00  1.02990E+03  8.064E-01  1.200E+01  6.000E-02  1.269E+00
   1   13    7     6     5    1.2370E+01  3.0202E-03   1.2367E+01  0.000E+00  0.000E+00  0.000E+00  1.02671E+03  8.019E-01  1.200E+01  2.400E-02  4.195E-02
   1   14    9     7     1    1.5000E+02  1.3934E+00   1.4861E+02  0.000E+00  0.000E+00  0.000E+00  1.03987E+03  2.288E+00  5.529E+01  5.593E-01  8.304E-01
   1   13    8     7     2    1.4861E+02  2.0001E+00   1.4661E+02  0.000E+00  0.000E+00  0.000E+00  1.03478E+03  2.279E+00  5.525E+01  6.147E-01  1.085E+00
   1   13    7     7     3    1.4661E+02  1.7325E+00   1.4487E+02  0.000E+00  0.000E+00  0.000E+00  1.02969E+03  2.269E+00  5.521E+01  5.584E-01  1.034E+00
   1   13    6     8     1    1.5724E+02  1.1037E+00   1.5614E+02  0.000E+00  0.000E+00  0.000E+00  1.02474E+03  2.864E+00  4.152E+01  4.231E-01  8.695E-01
   1   13    5     8     2    1.5614E+02  3.5127E-01   1.5579E+02  0.000E+00  0.000E+00  0.000E+00  1.01848E+03  2.859E+00  4.145E+01  4.224E-01  2.772E-01
   1   13    4     8     3    1.5579E+02 -1.8291E+00   1.5762E+02  0.000E+00  0.000E+00  0.000E+00  1.01224E+03  2.864E+00  4.152E+01  4.231E+00 -1.441E-01
   1   13    3     8     4    1.5762E+02 -3.3381E+00   1.6095E+02  0.000E+00  0.000E+00  0.000E+00  1.00601E+03  2.881E+00  4.178E+01  4.257E+00 -2.614E-01
   1   13    2     8     5    1.6095E+02 -2.4936E+00   1.6345E+02  0.000E+00  0.000E+00  0.000E+00  9.99776E+02  2.901E+00  4.206E+01  4.286E+00 -1.939E-01
   1   13    1     8     6    1.6345E+02 -1.9499E+00   1.6540E+02  0.000E+00  0.000E+00  0.000E+00  9.94791E+02  2.916E+00  4.228E+01  2.585E+00 -2.514E-01
   1    8    6     9     1    5.3917E-01  0.0000E+00   5.3917E-01  0.000E+00  0.000E+00  0.000E+00  1.07913E+03  3.770E-01  4.000E+00  0.000E+00  1.126E+00
   1    8    5     9     2    5.3917E-01  0.0000E+00   5.3917E-01  0.000E+00  0.000E+00  0.000E+00  1.07863E+03  3.770E-01  4.000E+00  0.000E+00  1.126E+00





UNSATURATED ZONE PACKAGE VOLUMETRIC BUDGET FOR  TIME STEP    30 STRESS PERIOD   47
  ------------------------------------------------------------------------------



     CUMULATIVE VOLUMES      L**3       RATES FOR THIS TIME STEP      L**3/T
     ------------------                 ------------------------

           IN:                                      IN:
           ---                                      ---
        INFILTRATION =  2116925785.0525          INFILTRATION =           4.9467

          OUT:                                     OUT:
          ----                                     ----
              UZF ET =  1982291676.7303                UZF ET =           4.2121
        UZF RECHARGE =     1239720.7563          UZF RECHARGE =       0.0000E+00

            IN - OUT =   133394387.5659              IN - OUT =           0.7346

          STORAGE:                                 STORAGE:
          --------                                 --------
      STORAGE CHANGE =   133394358.0008        STORAGE CHANGE =           0.7346

 PERCENT DISCREPANCY IS DIFFERENCE BETWEEN IN-OUT MINUS CHANGE IN STORAGE
 DIVIDED BY THE AVERAGE OF IN AND OUT TIMES 100

 PERCENT DISCREPANCY =           0.00     PERCENT DISCREPANCY =           0.00






1
  VOLUMETRIC BUDGET FOR AGRICULTURAL FIELDS AT  END OF TIME STEP   30, STRESS PERIOD  47
  ------------------------------------------------------------------------------

     CUMULATIVE VOLUMES      L**3       RATES FOR THIS TIME STEP      L**3/T
     ------------------                 ------------------------

           IN:                                      IN:
           ---                                      ---
               AG WELLS  =   837784448.0000                 AG WELLS  =           0.0000
      DIVERSION SEGMENTS =   745835200.0000        DIVERSION SEGMENTS =           0.5392
           GW IRRIGATION =           0.0000             GW IRRIGATION =           0.0000
           SW IRRIGATION =           0.0000             SW IRRIGATION =           0.0000
        SYSTEM LOSSES GW =           0.0000          SYSTEM LOSSES GW =           0.0000
        SYSTEM LOSSES SW =           0.0000          SYSTEM LOSSES SW =           0.0000

                TOTAL IN =  1583619584.0000                  TOTAL IN =           0.5392

          OUT:                                     OUT:
          ----                                     ----
               AG WELLS  =           0.0000                 AG WELLS  =           0.0000
      DIVERSION SEGMENTS =           0.0000        DIVERSION SEGMENTS =           0.0000
           GW IRRIGATION =   837784448.0000             GW IRRIGATION =           0.0000
           SW IRRIGATION =   745848640.0000             SW IRRIGATION =           0.5392
        SYSTEM LOSSES GW =           0.0000          SYSTEM LOSSES GW =           0.0000
        SYSTEM LOSSES SW =           0.0000          SYSTEM LOSSES SW =           0.0000

               TOTAL OUT =  1583633152.0000                 TOTAL OUT =           0.5392

                IN - OUT =      -13568.0000                  IN - OUT =      -1.0788E-05

     PERCENT DISCREPANCY =          -0.00         PERCENT DISCREPANCY =          -0.00



1
  VOLUMETRIC BUDGET FOR ENTIRE MODEL AT END OF TIME STEP   30, STRESS PERIOD  47
  ------------------------------------------------------------------------------

     CUMULATIVE VOLUMES      L**3       RATES FOR THIS TIME STEP      L**3/T
     ------------------                 ------------------------

           IN:                                      IN:
           ---                                      ---
             STORAGE     =  1179561472.0000               STORAGE     =           7.7024
       CONSTANT HEAD     =           0.0000         CONSTANT HEAD     =           0.0000
     HEAD DEP BOUNDS     =    34931960.0000       HEAD DEP BOUNDS     =           0.2897
      STREAM LEAKAGE     =  1436571648.0000        STREAM LEAKAGE     =          11.6455
        UZF RECHARGE     =     1239721.0000          UZF RECHARGE     =           0.0000
               GW ET     =           0.0000                 GW ET     =           0.0000
     SURFACE LEAKAGE     =           0.0000       SURFACE LEAKAGE     =           0.0000
           AG WELLS      =           0.0000             AG WELLS      =           0.0000

                TOTAL IN =  2652304896.0000                  TOTAL IN =          19.6376

          OUT:                                     OUT:
          ----                                     ----
             STORAGE     =   566093376.0000               STORAGE     =           9.7397
       CONSTANT HEAD     =           0.0000         CONSTANT HEAD     =           0.0000
     HEAD DEP BOUNDS     =    34842028.0000       HEAD DEP BOUNDS     =           0.2867
      STREAM LEAKAGE     =  1213521408.0000        STREAM LEAKAGE     =           9.6107
        UZF RECHARGE     =           0.0000          UZF RECHARGE     =           0.0000
               GW ET     =           0.0000                 GW ET     =           0.0000
     SURFACE LEAKAGE     =           0.0000       SURFACE LEAKAGE     =           0.0000
           AG WELLS      =   837784448.0000             AG WELLS      =           0.0000

               TOTAL OUT =  2652241408.0000                 TOTAL OUT =          19.6372

                IN - OUT =       63488.0000                  IN - OUT =       4.1389E-04

     PERCENT DISCREPANCY =           0.00         PERCENT DISCREPANCY =           0.00






         TIME SUMMARY AT END OF TIME STEP   30 IN STRESS PERIOD   47
                    SECONDS     MINUTES      HOURS       DAYS        YEARS
                    -----------------------------------------------------------
   TIME STEP LENGTH  87667.      1461.1      24.352      1.0147     2.77799E-03
 STRESS PERIOD TIME 2.63000E+06  43833.      730.56      30.440     8.33397E-02
         TOTAL TIME 1.21065E+08 2.01775E+06  33629.      1401.2      3.8363    
1
1
                            STRESS PERIOD NO.   48, LENGTH =   2630000.    
                            -----------------------------------------------

                              NUMBER OF TIME STEPS =    30

                               MULTIPLIER FOR DELT =     1.000

                            INITIAL TIME STEP SIZE =   87666.66    

 REUSING NON-PARAMETER GHB CELLS FROM LAST STRESS PERIOD

      2 GHB CELLS

 REUSING STREAM SEGMENT DATA FROM LAST STRESS PERIOD



            AREAL INFILTRATION RATE
 READING ON UNIT   19 WITH FORMAT: (10F4.0)            

            1           2           3           4           5           6           7           8           9          10
 ........................................................................................................................
   1   1.2000E-09   0.000       0.000       0.000       0.000       0.000       0.000       0.000       0.000       0.000    
   2   2.1000E-09  2.0000E-09  8.0000E-10  8.5000E-09   0.000       0.000       0.000       0.000       0.000       0.000    
   3   5.0000E-10  1.1000E-09  8.8000E-09  5.5000E-09   0.000       0.000       0.000       0.000       0.000       0.000    
   4   8.5000E-09  1.1000E-09  1.1000E-09  1.1000E-09  2.0000E-09   0.000       0.000       0.000       0.000       0.000    
   5   8.5000E-09  1.1000E-09  1.1000E-09  1.1000E-09  1.1000E-09   0.000       0.000       0.000       0.000       0.000    
   6   8.5000E-09  5.2000E-09  2.1000E-09  1.1000E-09  1.5000E-09   0.000       0.000       0.000       0.000       0.000    
   7   8.5000E-09  5.2000E-09  2.1000E-09  1.2000E-09  2.0000E-09   0.000       0.000       0.000       0.000       0.000    
   8   5.0000E-10  5.2000E-09  2.1000E-09  1.2000E-09  5.0000E-09   0.000       0.000       0.000       0.000       0.000    
   9   5.0000E-10  5.2000E-09  2.1000E-09  1.2000E-09  5.0000E-09   0.000       0.000       0.000       0.000       0.000    
  10   5.0000E-10  5.2000E-09  2.1000E-09  1.2000E-09  5.8000E-09   0.000       0.000       0.000       0.000       0.000    
  11   1.0000E-10  1.1000E-09  1.1000E-09  1.2000E-09  5.0000E-09   0.000       0.000       0.000       0.000       0.000    
  12   1.1000E-09  1.1000E-09  1.1000E-09  1.1000E-09  2.0000E-09   0.000       0.000       0.000       0.000       0.000    
  13   1.1000E-09  2.2000E-09  2.2000E-09  2.1000E-09  1.0000E-09   0.000       0.000       0.000       0.000       0.000    
  14   2.0000E-10  5.5000E-09  5.5000E-09  5.2000E-09  1.0000E-09   0.000       0.000       0.000       0.000       0.000    
  15    0.000      8.8000E-09  8.8000E-09   0.000       0.000       0.000       0.000       0.000       0.000       0.000    

                  ET RATE =  5.000000E-10

 USING ET EXTINCTION DEPTH FROM PREVIOUS STRESS PERIOD. CURRENT PERIOD IS:      48

 USING EXTINCTION WATER CONTENT FROM PREVIOUS STRESS PERIOD. CURRENT PERIOD IS:      48

 USING AIR ENTRY PRESSURE FROM PREVIOUS STRESS PERIOD. CURRENT PERIOD IS:      48

 USING ROOT PRESSURE HEAD FROM PREVIOUS STRESS PERIOD. CURRENT PERIOD IS:      48

 USING ROOT ACTIVITY FROM PREVIOUS STRESS PERIOD. CURRENT PERIOD IS:      48

 PROCESSING AG STRESS PERIOD DATA

 READING AG STRESS PERIOD DATA

 READING IRRIGATION SEGMENT

 READING IRRIGATION WELL

 READING SUPPLEMENTAL WELL

 END PROCESSING AG STRESS PERIOD DATA OPTIONS
 
 SOLVING FOR HEAD 
                                                   Max.-Head-Change                         Max.-Flux-Residual
  Residual-Control   Outer-Iter.   Inner-Iter.     Column Row Layer    Maximum-Head-Change  Column Row Layer    Maximum-Flux-Residual          L2-NORM 
          0                 1           2             4    7     1       0.3396261975E-01       4    7    1         0.1789594570E+01      0.3618915006E+01
          0                 2           2             4    7     1      -0.3303660234E-02       4    7    1        -0.1789610505E+00      0.3618923941E+00
          0                 3           2             4    7     1       0.2249667854E-03       4    7    1         0.1252726387E-01      0.2533246760E-01
          0                 4           1             4    7     1      -0.8951639843E-05       4    7    1        -0.5123658784E-03      0.1036098564E-02

    ------------------------------------------------
       NWT REQUIRED            4 OUTER ITERATIONS 
       AND A TOTAL OF          7 INNER ITERATIONS.
    ------------------------------------------------

 NO OUTPUT CONTROL FOR STRESS PERIOD   48   TIME STEP    1
 
 SOLVING FOR HEAD 
                                                   Max.-Head-Change                         Max.-Flux-Residual
  Residual-Control   Outer-Iter.   Inner-Iter.     Column Row Layer    Maximum-Head-Change  Column Row Layer    Maximum-Flux-Residual          L2-NORM 
          0                 1           2             4    7     1       0.3348907608E-01       4    7    1         0.1764625274E+01      0.3570142101E+01
          0                 2           2             4    7     1      -0.3257596815E-02       4    7    1        -0.1764640845E+00      0.3570151014E+00
          0                 3           2             4    7     1       0.2218300425E-03       4    7    1         0.1235247652E-01      0.2499105469E-01
          0                 4           1             4    7     1      -0.8826826097E-05       4    7    1        -0.5052170641E-03      0.1022135043E-02

    ------------------------------------------------
       NWT REQUIRED            4 OUTER ITERATIONS 
       AND A TOTAL OF          7 INNER ITERATIONS.
    ------------------------------------------------

 NO OUTPUT CONTROL FOR STRESS PERIOD   48   TIME STEP    2
 
 SOLVING FOR HEAD 
                                                   Max.-Head-Change                         Max.-Flux-Residual
  Residual-Control   Outer-Iter.   Inner-Iter.     Column Row Layer    Maximum-Head-Change  Column Row Layer    Maximum-Flux-Residual          L2-NORM 
          0                 1           2             4    7     1       0.3302257938E-01       4    7    1         0.1740021633E+01      0.3522481738E+01
          0                 2           2             4    7     1      -0.3212218880E-02       4    7    1        -0.1740036845E+00      0.3522490665E+00
          0                 3           2             4    7     1       0.2187399781E-03       4    7    1         0.1218024877E-01      0.2465743829E-01
          0                 4           1             4    7     1      -0.8703869360E-05       4    7    1        -0.4981729339E-03      0.1008493315E-02

    ------------------------------------------------
       NWT REQUIRED            4 OUTER ITERATIONS 
       AND A TOTAL OF          7 INNER ITERATIONS.
    ------------------------------------------------

 NO OUTPUT CONTROL FOR STRESS PERIOD   48   TIME STEP    3
 
 SOLVING FOR HEAD 
                                                   Max.-Head-Change                         Max.-Flux-Residual
  Residual-Control   Outer-Iter.   Inner-Iter.     Column Row Layer    Maximum-Head-Change  Column Row Layer    Maximum-Flux-Residual          L2-NORM 
          0                 1           2             4    7     1       0.3256297964E-01       4    7    1         0.1715776070E+01      0.3475888529E+01
          0                 2           2             4    7     1      -0.3167511836E-02       4    7    1        -0.1715790927E+00      0.3475897384E+00
          0                 3           2             4    7     1       0.2156955994E-03       4    7    1         0.1201052761E-01      0.2433128376E-01
          0                 4           1             4    7     1      -0.8582730832E-05       4    7    1        -0.4912313270E-03      0.9951500960E-03

    ------------------------------------------------
       NWT REQUIRED            4 OUTER ITERATIONS 
       AND A TOTAL OF          7 INNER ITERATIONS.
    ------------------------------------------------

 NO OUTPUT CONTROL FOR STRESS PERIOD   48   TIME STEP    4
 
 SOLVING FOR HEAD 
                                                   Max.-Head-Change                         Max.-Flux-Residual
  Residual-Control   Outer-Iter.   Inner-Iter.     Column Row Layer    Maximum-Head-Change  Column Row Layer    Maximum-Flux-Residual          L2-NORM 
          0                 1           2             4    7     1       0.3211052499E-01       4    7    1         0.1691902680E+01      0.3430336985E+01
          0                 2           2             4    7     1      -0.3123499823E-02       4    7    1        -0.1691917186E+00      0.3430345741E+00
          0                 3           2             4    7     1       0.2126985499E-03       4    7    1         0.1184341170E-01      0.2401242007E-01
          0                 4           1             4    7     1      -0.8463475217E-05       4    7    1        -0.4843962761E-03      0.9821085852E-03

    ------------------------------------------------
       NWT REQUIRED            4 OUTER ITERATIONS 
       AND A TOTAL OF          7 INNER ITERATIONS.
    ------------------------------------------------

 NO OUTPUT CONTROL FOR STRESS PERIOD   48   TIME STEP    5
 
 SOLVING FOR HEAD 
                                                   Max.-Head-Change                         Max.-Flux-Residual
  Residual-Control   Outer-Iter.   Inner-Iter.     Column Row Layer    Maximum-Head-Change  Column Row Layer    Maximum-Flux-Residual          L2-NORM 
          0                 1           2             4    7     1       0.3166517343E-01       4    7    1         0.1668399748E+01      0.3385790031E+01
          0                 2           2             4    7     1      -0.3080178753E-02       4    7    1        -0.1668413908E+00      0.3385798667E+00
          0                 3           2             4    7     1       0.2097485504E-03       4    7    1         0.1167888900E-01      0.2370058380E-01
          0                 4           1             4    7     1      -0.8346092266E-05       4    7    1        -0.4776673009E-03      0.9693562887E-03

    ------------------------------------------------
       NWT REQUIRED            4 OUTER ITERATIONS 
       AND A TOTAL OF          7 INNER ITERATIONS.
    ------------------------------------------------

 NO OUTPUT CONTROL FOR STRESS PERIOD   48   TIME STEP    6
 
 SOLVING FOR HEAD 
                                                   Max.-Head-Change                         Max.-Flux-Residual
  Residual-Control   Outer-Iter.   Inner-Iter.     Column Row Layer    Maximum-Head-Change  Column Row Layer    Maximum-Flux-Residual          L2-NORM 
          0                 1           2             4    7     1       0.3122661251E-01       4    7    1         0.1645250512E+01      0.3342214916E+01
          0                 2           2             4    7     1      -0.3037518235E-02       4    7    1        -0.1645264332E+00      0.3342223379E+00
          0                 3           2             4    7     1       0.2068435322E-03       4    7    1         0.1151684223E-01      0.2339556339E-01
          0                 4           1             4    7     1      -0.8230498630E-05       4    7    1        -0.4710395615E-03      0.9568790371E-03

    ------------------------------------------------
       NWT REQUIRED            4 OUTER ITERATIONS 
       AND A TOTAL OF          7 INNER ITERATIONS.
    ------------------------------------------------

 NO OUTPUT CONTROL FOR STRESS PERIOD   48   TIME STEP    7
 
 SOLVING FOR HEAD 
                                                   Max.-Head-Change                         Max.-Flux-Residual
  Residual-Control   Outer-Iter.   Inner-Iter.     Column Row Layer    Maximum-Head-Change  Column Row Layer    Maximum-Flux-Residual          L2-NORM 
          0                 1           2             4    7     1       0.3079506585E-01       4    7    1         0.1622467939E+01      0.3299580443E+01
          0                 2           2             4    7     1      -0.2995540022E-02       4    7    1        -0.1622481425E+00      0.3299588778E+00
          0                 3           2             4    7     1       0.2039849761E-03       4    7    1         0.1135736211E-01      0.2309712228E-01
          0                 4           1             4    7     1      -0.8116753942E-05       4    7    1        -0.4645168165E-03      0.9446715153E-03

    ------------------------------------------------
       NWT REQUIRED            4 OUTER ITERATIONS 
       AND A TOTAL OF          7 INNER ITERATIONS.
    ------------------------------------------------

 NO OUTPUT CONTROL FOR STRESS PERIOD   48   TIME STEP    8
 
 SOLVING FOR HEAD 
                                                   Max.-Head-Change                         Max.-Flux-Residual
  Residual-Control   Outer-Iter.   Inner-Iter.     Column Row Layer    Maximum-Head-Change  Column Row Layer    Maximum-Flux-Residual          L2-NORM 
          0                 1           2             4    7     1       0.3037047158E-01       4    7    1         0.1600049042E+01      0.3257859954E+01
          0                 2           2             4    7     1      -0.2954238096E-02       4    7    1        -0.1600062199E+00      0.3257868110E+00
          0                 3           2             4    7     1       0.2011724728E-03       4    7    1         0.1120042778E-01      0.2280508222E-01
          0                 4           1             4    7     1      -0.8004841625E-05       4    7    1        -0.4580981849E-03      0.9327322685E-03

    ------------------------------------------------
       NWT REQUIRED            4 OUTER ITERATIONS 
       AND A TOTAL OF          7 INNER ITERATIONS.
    ------------------------------------------------

 NO OUTPUT CONTROL FOR STRESS PERIOD   48   TIME STEP    9
 
 SOLVING FOR HEAD 
                                                   Max.-Head-Change                         Max.-Flux-Residual
  Residual-Control   Outer-Iter.   Inner-Iter.     Column Row Layer    Maximum-Head-Change  Column Row Layer    Maximum-Flux-Residual          L2-NORM 
          0                 1           2             4    7     1       0.2995263240E-01       4    7    1         0.1577983318E+01      0.3217028787E+01
          0                 2           2             4    7     1      -0.2913593263E-02       4    7    1        -0.1577996152E+00      0.3217036763E+00
          0                 3           2             4    7     1       0.1984047152E-03       4    7    1         0.1104596570E-01      0.2251926173E-01
          0                 4           1             4    7     1      -0.7894710102E-05       4    7    1        -0.4517806810E-03      0.9210415200E-03

    ------------------------------------------------
       NWT REQUIRED            4 OUTER ITERATIONS 
       AND A TOTAL OF          7 INNER ITERATIONS.
    ------------------------------------------------

 NO OUTPUT CONTROL FOR STRESS PERIOD   48   TIME STEP   10
 
 SOLVING FOR HEAD 
                                                   Max.-Head-Change                         Max.-Flux-Residual
  Residual-Control   Outer-Iter.   Inner-Iter.     Column Row Layer    Maximum-Head-Change  Column Row Layer    Maximum-Flux-Residual          L2-NORM 
          0                 1           2             4    7     1       0.2954174811E-01       4    7    1         0.1556282418E+01      0.3177052396E+01
          0                 2           2             4    7     1      -0.2873624962E-02       4    7    1        -0.1556294936E+00      0.3177060160E+00
          0                 3           2             4    7     1       0.1956830262E-03       4    7    1         0.1089405740E-01      0.2223942495E-01
          0                 4           1             4    7     1      -0.7786411526E-05       4    7    1        -0.4455676194E-03      0.9095943473E-03

    ------------------------------------------------
       NWT REQUIRED            4 OUTER ITERATIONS 
       AND A TOTAL OF          7 INNER ITERATIONS.
    ------------------------------------------------

 NO OUTPUT CONTROL FOR STRESS PERIOD   48   TIME STEP   11
 
 SOLVING FOR HEAD 
                                                   Max.-Head-Change                         Max.-Flux-Residual
  Residual-Control   Outer-Iter.   Inner-Iter.     Column Row Layer    Maximum-Head-Change  Column Row Layer    Maximum-Flux-Residual          L2-NORM 
          0                 1           2             4    7     1       0.2913747110E-01       4    7    1         0.1534927528E+01      0.3137909483E+01
          0                 2           2             4    7     1      -0.2834299377E-02       4    7    1        -0.1534939736E+00      0.3137917049E+00
          0                 3           2             4    7     1       0.1930051044E-03       4    7    1         0.1074457123E-01      0.2196542096E-01
          0                 4           1             4    7     1      -0.7679854830E-05       4    7    1        -0.4394536368E-03      0.8983843396E-03

    ------------------------------------------------
       NWT REQUIRED            4 OUTER ITERATIONS 
       AND A TOTAL OF          7 INNER ITERATIONS.
    ------------------------------------------------

 NO OUTPUT CONTROL FOR STRESS PERIOD   48   TIME STEP   12
 
 SOLVING FOR HEAD 
                                                   Max.-Head-Change                         Max.-Flux-Residual
  Residual-Control   Outer-Iter.   Inner-Iter.     Column Row Layer    Maximum-Head-Change  Column Row Layer    Maximum-Flux-Residual          L2-NORM 
          0                 1           2             4    7     1       0.2873986232E-01       4    7    1         0.1513922505E+01      0.3099572650E+01
          0                 2           2             4    7     1      -0.2795622439E-02       4    7    1        -0.1513934409E+00      0.3099579990E+00
          0                 3           2             4    7     1       0.1903713526E-03       4    7    1         0.1059753418E-01      0.2169705928E-01
          0                 4           1             4    7     1      -0.7575054981E-05       4    7    1        -0.4334397995E-03      0.8874082060E-03

    ------------------------------------------------
       NWT REQUIRED            4 OUTER ITERATIONS 
       AND A TOTAL OF          7 INNER ITERATIONS.
    ------------------------------------------------

 NO OUTPUT CONTROL FOR STRESS PERIOD   48   TIME STEP   13
 
 SOLVING FOR HEAD 
                                                   Max.-Head-Change                         Max.-Flux-Residual
  Residual-Control   Outer-Iter.   Inner-Iter.     Column Row Layer    Maximum-Head-Change  Column Row Layer    Maximum-Flux-Residual          L2-NORM 
          0                 1           2             4    7     1       0.2834883961E-01       4    7    1         0.1493263218E+01      0.3062025923E+01
          0                 2           2             4    7     1      -0.2757586156E-02       4    7    1        -0.1493274824E+00      0.3062033029E+00
          0                 3           2             4    7     1       0.1877812271E-03       4    7    1         0.1045291730E-01      0.2143423212E-01
          0                 4           1             4    7     1      -0.7471991717E-05       4    7    1        -0.4275249721E-03      0.8766636744E-03

    ------------------------------------------------
       NWT REQUIRED            4 OUTER ITERATIONS 
       AND A TOTAL OF          7 INNER ITERATIONS.
    ------------------------------------------------

 NO OUTPUT CONTROL FOR STRESS PERIOD   48   TIME STEP   14
 
 SOLVING FOR HEAD 
                                                   Max.-Head-Change                         Max.-Flux-Residual
  Residual-Control   Outer-Iter.   Inner-Iter.     Column Row Layer    Maximum-Head-Change  Column Row Layer    Maximum-Flux-Residual          L2-NORM 
          0                 1           2             4    7     1       0.2796431971E-01       4    7    1         0.1472945404E+01      0.3025240669E+01
          0                 2           2             4    7     1      -0.2720182427E-02       4    7    1        -0.1472956719E+00      0.3025247530E+00
          0                 3           2             4    7     1       0.1852341759E-03       4    7    1         0.1031069079E-01      0.2117672995E-01
          0                 4           1             4    7     1      -0.7370641782E-05       4    7    1        -0.4217078854E-03      0.8661273835E-03

    ------------------------------------------------
       NWT REQUIRED            4 OUTER ITERATIONS 
       AND A TOTAL OF          7 INNER ITERATIONS.
    ------------------------------------------------

 NO OUTPUT CONTROL FOR STRESS PERIOD   48   TIME STEP   15
 
 SOLVING FOR HEAD 
                                                   Max.-Head-Change                         Max.-Flux-Residual
  Residual-Control   Outer-Iter.   Inner-Iter.     Column Row Layer    Maximum-Head-Change  Column Row Layer    Maximum-Flux-Residual          L2-NORM 
          0                 1           2             4    7     1       0.2758621511E-01       4    7    1         0.1452964748E+01      0.2989197300E+01
          0                 2           2             4    7     1      -0.2683402742E-02       4    7    1        -0.1452975779E+00      0.2989203943E+00
          0                 3           2             4    7     1       0.1827296199E-03       4    7    1         0.1017082441E-01      0.2092442678E-01
          0                 4           1             4    7     1      -0.7270983417E-05       4    7    1        -0.4159873515E-03      0.8558109698E-03

    ------------------------------------------------
       NWT REQUIRED            4 OUTER ITERATIONS 
       AND A TOTAL OF          7 INNER ITERATIONS.
    ------------------------------------------------

 NO OUTPUT CONTROL FOR STRESS PERIOD   48   TIME STEP   16
 
 SOLVING FOR HEAD 
                                                   Max.-Head-Change                         Max.-Flux-Residual
  Residual-Control   Outer-Iter.   Inner-Iter.     Column Row Layer    Maximum-Head-Change  Column Row Layer    Maximum-Flux-Residual          L2-NORM 
          0                 1           2             4    7     1       0.2721456962E-01       4    7    1         0.1433324010E+01      0.2953878025E+01
          0                 2           2             4    7     1      -0.2647251362E-02       4    7    1        -0.1433334762E+00      0.2953884401E+00
          0                 3           2             4    7     1       0.1802678491E-03       4    7    1         0.1003333750E-01      0.2067718748E-01
          0                 4           1             4    7     1      -0.7173027213E-05       4    7    1        -0.4103641254E-03      0.8456975578E-03

    ------------------------------------------------
       NWT REQUIRED            4 OUTER ITERATIONS 
       AND A TOTAL OF          7 INNER ITERATIONS.
    ------------------------------------------------

 NO OUTPUT CONTROL FOR STRESS PERIOD   48   TIME STEP   17
 
 SOLVING FOR HEAD 
                                                   Max.-Head-Change                         Max.-Flux-Residual
  Residual-Control   Outer-Iter.   Inner-Iter.     Column Row Layer    Maximum-Head-Change  Column Row Layer    Maximum-Flux-Residual          L2-NORM 
          0                 1           2             4    7     1       0.2684928382E-01       4    7    1         0.1414018165E+01      0.2919254112E+01
          0                 2           2             4    7     1      -0.2611718615E-02       4    7    1        -0.1414028645E+00      0.2919260266E+00
          0                 3           2             4    7     1       0.1778482045E-03       4    7    1         0.9898194879E-02      0.2043481890E-01
          0                 4           1             4    7     1      -0.7076747152E-05       4    7    1        -0.4048367728E-03      0.8357853482E-03

    ------------------------------------------------
       NWT REQUIRED            4 OUTER ITERATIONS 
       AND A TOTAL OF          7 INNER ITERATIONS.
    ------------------------------------------------

 NO OUTPUT CONTROL FOR STRESS PERIOD   48   TIME STEP   18
 
 SOLVING FOR HEAD 
                                                   Max.-Head-Change                         Max.-Flux-Residual
  Residual-Control   Outer-Iter.   Inner-Iter.     Column Row Layer    Maximum-Head-Change  Column Row Layer    Maximum-Flux-Residual          L2-NORM 
          0                 1           2             4    7     1       0.2649012655E-01       4    7    1         0.1395034760E+01      0.2885314348E+01
          0                 2           2             4    7     1      -0.2576782016E-02       4    7    1        -0.1395044975E+00      0.2885320249E+00
          0                 3           2             4    7     1       0.1754691555E-03       4    7    1         0.9765309385E-02      0.2019723660E-01
          0                 4           1             4    7     1      -0.6982082332E-05       4    7    1        -0.3994017507E-03      0.8260699718E-03

    ------------------------------------------------
       NWT REQUIRED            4 OUTER ITERATIONS 
       AND A TOTAL OF          7 INNER ITERATIONS.
    ------------------------------------------------

 NO OUTPUT CONTROL FOR STRESS PERIOD   48   TIME STEP   19
 
 SOLVING FOR HEAD 
                                                   Max.-Head-Change                         Max.-Flux-Residual
  Residual-Control   Outer-Iter.   Inner-Iter.     Column Row Layer    Maximum-Head-Change  Column Row Layer    Maximum-Flux-Residual          L2-NORM 
          0                 1           2             4    7     1       0.2613700297E-01       4    7    1         0.1376369108E+01      0.2852034303E+01
          0                 2           2             4    7     1      -0.2542432531E-02       4    7    1        -0.1376379063E+00      0.2851966564E+00
          0                 3           2             4    7     1       0.1731302724E-03       4    7    1         0.9634648183E-02      0.1996968018E-01
          0                 4           1             4    7     1      -0.6889016173E-05       4    7    1        -0.3940577049E-03      0.8167596244E-03

    ------------------------------------------------
       NWT REQUIRED            4 OUTER ITERATIONS 
       AND A TOTAL OF          7 INNER ITERATIONS.
    ------------------------------------------------

 NO OUTPUT CONTROL FOR STRESS PERIOD   48   TIME STEP   20
 
 SOLVING FOR HEAD 
                                                   Max.-Head-Change                         Max.-Flux-Residual
  Residual-Control   Outer-Iter.   Inner-Iter.     Column Row Layer    Maximum-Head-Change  Column Row Layer    Maximum-Flux-Residual          L2-NORM 
          0                 1           2             4    7     1       0.2578995288E-01       4    7    1         0.1358023589E+01      0.2819399220E+01
          0                 2           2             4    7     1      -0.2508669027E-02       4    7    1        -0.1358033291E+00      0.2818144937E+00
          0                 3           2             4    7     1       0.1708309205E-03       4    7    1         0.9506227947E-02      0.1972700894E-01
          0                 4           1             4    7     1      -0.6797523002E-05       4    7    1        -0.3888053161E-03      0.8068352085E-03

    ------------------------------------------------
       NWT REQUIRED            4 OUTER ITERATIONS 
       AND A TOTAL OF          7 INNER ITERATIONS.
    ------------------------------------------------

 NO OUTPUT CONTROL FOR STRESS PERIOD   48   TIME STEP   21
 
 SOLVING FOR HEAD 
                                                   Max.-Head-Change                         Max.-Flux-Residual
  Residual-Control   Outer-Iter.   Inner-Iter.     Column Row Layer    Maximum-Head-Change  Column Row Layer    Maximum-Flux-Residual          L2-NORM 
          0                 1           2             4    7     1       0.2544902893E-01       4    7    1         0.1340000504E+01      0.2787514651E+01
          0                 2           2             4    7     1      -0.2475510494E-02       4    7    1        -0.1340009960E+00      0.2787520335E+00
          0                 3           2             4    7     1       0.1685729509E-03       4    7    1         0.9380064827E-02      0.1951263382E-01
          0                 4           1             4    7     1      -0.6707675926E-05       4    7    1        -0.3836452165E-03      0.7980659719E-03

    ------------------------------------------------
       NWT REQUIRED            4 OUTER ITERATIONS 
       AND A TOTAL OF          7 INNER ITERATIONS.
    ------------------------------------------------

 NO OUTPUT CONTROL FOR STRESS PERIOD   48   TIME STEP   22
 
 SOLVING FOR HEAD 
                                                   Max.-Head-Change                         Max.-Flux-Residual
  Residual-Control   Outer-Iter.   Inner-Iter.     Column Row Layer    Maximum-Head-Change  Column Row Layer    Maximum-Flux-Residual          L2-NORM 
          0                 1           2             4    7     1       0.2511384449E-01       4    7    1         0.1322279979E+01      0.2756232806E+01
          0                 2           2             4    7     1      -0.2442905833E-02       4    7    1        -0.1322289193E+00      0.2756238273E+00
          0                 3           2             4    7     1       0.1663526980E-03       4    7    1         0.9256019637E-02      0.1929366444E-01
          0                 4           1             4    7     1      -0.6619330114E-05       4    7    1        -0.3785717663E-03      0.7891127300E-03

    ------------------------------------------------
       NWT REQUIRED            4 OUTER ITERATIONS 
       AND A TOTAL OF          7 INNER ITERATIONS.
    ------------------------------------------------

 NO OUTPUT CONTROL FOR STRESS PERIOD   48   TIME STEP   23
 
 SOLVING FOR HEAD 
                                                   Max.-Head-Change                         Max.-Flux-Residual
  Residual-Control   Outer-Iter.   Inner-Iter.     Column Row Layer    Maximum-Head-Change  Column Row Layer    Maximum-Flux-Residual          L2-NORM 
          0                 1           2             4    7     1       0.2478444509E-01       4    7    1         0.1304864572E+01      0.2725544547E+01
          0                 2           2             4    7     1      -0.2410863908E-02       4    7    1        -0.1304873551E+00      0.2725549820E+00
          0                 3           2             4    7     1       0.1641707640E-03       4    7    1         0.9134110304E-02      0.1907884237E-01
          0                 4           1             4    7     1      -0.6532508707E-05       4    7    1        -0.3735856603E-03      0.7803260438E-03

    ------------------------------------------------
       NWT REQUIRED            4 OUTER ITERATIONS 
       AND A TOTAL OF          7 INNER ITERATIONS.
    ------------------------------------------------

 NO OUTPUT CONTROL FOR STRESS PERIOD   48   TIME STEP   24
 
 SOLVING FOR HEAD 
                                                   Max.-Head-Change                         Max.-Flux-Residual
  Residual-Control   Outer-Iter.   Inner-Iter.     Column Row Layer    Maximum-Head-Change  Column Row Layer    Maximum-Flux-Residual          L2-NORM 
          0                 1           2             4    7     1       0.2446072927E-01       4    7    1         0.1287749108E+01      0.2695426706E+01
          0                 2           2             4    7     1      -0.2379374921E-02       4    7    1        -0.1287757859E+00      0.2695432592E+00
          0                 3           2             4    7     1       0.1620264844E-03       4    7    1         0.9014300630E-02      0.1886801933E-01
          0                 4           1             4    7     1      -0.6447186145E-05       4    7    1        -0.3686854502E-03      0.7717032863E-03

    ------------------------------------------------
       NWT REQUIRED            4 OUTER ITERATIONS 
       AND A TOTAL OF          7 INNER ITERATIONS.
    ------------------------------------------------

 NO OUTPUT CONTROL FOR STRESS PERIOD   48   TIME STEP   25
 
 SOLVING FOR HEAD 
                                                   Max.-Head-Change                         Max.-Flux-Residual
  Residual-Control   Outer-Iter.   Inner-Iter.     Column Row Layer    Maximum-Head-Change  Column Row Layer    Maximum-Flux-Residual          L2-NORM 
          0                 1           2             4    7     1       0.2414259771E-01       4    7    1         0.1270928324E+01      0.2665870580E+01
          0                 2           2             4    7     1      -0.2348429065E-02       4    7    1        -0.1270936852E+00      0.2665876150E+00
          0                 3           2             4    7     1       0.1599191898E-03       4    7    1         0.8896553754E-02      0.1866112488E-01
          0                 4           1             4    7     1      -0.6363334915E-05       4    7    1        -0.3638695875E-03      0.7632374284E-03

    ------------------------------------------------
       NWT REQUIRED            4 OUTER ITERATIONS 
       AND A TOTAL OF          7 INNER ITERATIONS.
    ------------------------------------------------

 NO OUTPUT CONTROL FOR STRESS PERIOD   48   TIME STEP   26
 
 SOLVING FOR HEAD 
                                                   Max.-Head-Change                         Max.-Flux-Residual
  Residual-Control   Outer-Iter.   Inner-Iter.     Column Row Layer    Maximum-Head-Change  Column Row Layer    Maximum-Flux-Residual          L2-NORM 
          0                 1           2             4    7     1       0.2383008700E-01       4    7    1         0.1254404380E+01      0.2636862205E+01
          0                 2           2             4    7     1      -0.2318029972E-02       4    7    1        -0.1254412690E+00      0.2636867540E+00
          0                 3           2             4    7     1       0.1578491272E-03       4    7    1         0.8780884761E-02      0.1845806389E-01
          0                 4           1             4    7     1      -0.6280965146E-05       4    7    1        -0.3591387290E-03      0.7549376468E-03

    ------------------------------------------------
       NWT REQUIRED            4 OUTER ITERATIONS 
       AND A TOTAL OF          7 INNER ITERATIONS.
    ------------------------------------------------

 NO OUTPUT CONTROL FOR STRESS PERIOD   48   TIME STEP   27
 
 SOLVING FOR HEAD 
                                                   Max.-Head-Change                         Max.-Flux-Residual
  Residual-Control   Outer-Iter.   Inner-Iter.     Column Row Layer    Maximum-Head-Change  Column Row Layer    Maximum-Flux-Residual          L2-NORM 
          0                 1           2             4    7     1       0.2352295620E-01       4    7    1         0.1238164565E+01      0.2608388455E+01
          0                 2           2             4    7     1      -0.2288154206E-02       4    7    1        -0.1238172663E+00      0.2608393547E+00
          0                 3           2             4    7     1       0.1558147015E-03       4    7    1         0.8667204733E-02      0.1825874020E-01
          0                 4           1             4    7     1      -0.6200013289E-05       4    7    1        -0.3544892070E-03      0.7467856590E-03

    ------------------------------------------------
       NWT REQUIRED            4 OUTER ITERATIONS 
       AND A TOTAL OF          7 INNER ITERATIONS.
    ------------------------------------------------

 NO OUTPUT CONTROL FOR STRESS PERIOD   48   TIME STEP   28
 
 SOLVING FOR HEAD 
                                                   Max.-Head-Change                         Max.-Flux-Residual
  Residual-Control   Outer-Iter.   Inner-Iter.     Column Row Layer    Maximum-Head-Change  Column Row Layer    Maximum-Flux-Residual          L2-NORM 
          0                 1           2             4    7     1       0.2322110667E-01       4    7    1         0.1222203689E+01      0.2580431563E+01
          0                 2           2             4    7     1      -0.2258792173E-02       4    7    1        -0.1222211581E+00      0.2580436387E+00
          0                 3           2             4    7     1       0.1538152589E-03       4    7    1         0.8555477303E-02      0.1806304336E-01
          0                 4           1             4    7     1      -0.6120453785E-05       4    7    1        -0.3499195468E-03      0.7387782459E-03

    ------------------------------------------------
       NWT REQUIRED            4 OUTER ITERATIONS 
       AND A TOTAL OF          7 INNER ITERATIONS.
    ------------------------------------------------

 NO OUTPUT CONTROL FOR STRESS PERIOD   48   TIME STEP   29
 
 SOLVING FOR HEAD 
                                                   Max.-Head-Change                         Max.-Flux-Residual
  Residual-Control   Outer-Iter.   Inner-Iter.     Column Row Layer    Maximum-Head-Change  Column Row Layer    Maximum-Flux-Residual          L2-NORM 
          0                 1           2             4    7     1       0.2292457223E-01       4    7    1         0.1206523940E+01      0.2552977294E+01
          0                 2           2             4    7     1      -0.2229947160E-02       4    7    1        -0.1206531631E+00      0.2552981848E+00
          0                 3           2             4    7     1       0.1518510234E-03       4    7    1         0.8445717797E-02      0.1787086081E-01
          0                 4           1             4    7     1      -0.6042294809E-05       4    7    1        -0.3454303733E-03      0.7309123771E-03

    ------------------------------------------------
       NWT REQUIRED            4 OUTER ITERATIONS 
       AND A TOTAL OF          7 INNER ITERATIONS.
    ------------------------------------------------

 NO OUTPUT CONTROL FOR STRESS PERIOD   48   TIME STEP   30



 STREAM LISTING     PERIOD     48   STEP       30

 LAYER ROW COL. STREAM  RCH.  FLOW INTO     FLOW TO   FLOW OUT OF   OVRLND.     DIRECT     STREAM       STREAM     STREAM     STREAM   STREAMBED  STREAMBED
                SEG.NO.  NO.  STRM. RCH.    AQUIFER    STRM. RCH.    RUNOFF     PRECIP       ET          HEAD       DEPTH      WIDTH   CONDCTNC.   GRADIENT

   1    1    1     1     1    7.8748E+00  1.2804E-01   7.7467E+00  0.000E+00  0.000E+00  0.000E+00  1.09388E+03  8.295E-01  7.430E+00  3.344E-02  1.276E+00
   1    2    2     1     2    7.7467E+00  1.9662E-01   7.5501E+00  0.000E+00  0.000E+00  0.000E+00  1.08888E+03  8.237E-01  7.346E+00  5.142E-02  1.275E+00
   1    3    3     1     3    7.5501E+00  1.6606E-01   7.3840E+00  0.000E+00  0.000E+00  0.000E+00  1.08324E+03  8.172E-01  7.251E+00  4.350E-02  1.272E+00
   1    3    4     1     4    7.3840E+00  1.5159E-01   7.2324E+00  0.000E+00  0.000E+00  0.000E+00  1.07822E+03  8.115E-01  7.166E+00  3.977E-02  1.270E+00
   1    4    5     2     1    5.2324E+00  2.7028E-01   4.9622E+00  0.000E+00  0.000E+00  0.000E+00  1.07240E+03  4.651E-01  1.200E+01  7.800E-02  1.155E+00
   1    5    6     2     2    4.9622E+00  2.0711E-01   4.7551E+00  0.000E+00  0.000E+00  0.000E+00  1.06696E+03  4.519E-01  1.200E+01  6.000E-02  1.151E+00
   1    6    6     2     3    4.7551E+00  2.0642E-01   4.5486E+00  0.000E+00  0.000E+00  0.000E+00  1.06223E+03  4.403E-01  1.200E+01  6.000E-02  1.147E+00
   1    7    6     2     4    4.5486E+00  2.0571E-01   4.3429E+00  0.000E+00  0.000E+00  0.000E+00  1.05750E+03  4.285E-01  1.200E+01  6.000E-02  1.143E+00
   1    8    6     2     5    4.3429E+00  2.0499E-01   4.1379E+00  0.000E+00  0.000E+00  0.000E+00  1.05278E+03  4.165E-01  1.200E+01  6.000E-02  1.139E+00
   1    3    5     3     1    2.0000E+00  2.8252E-01   1.7175E+00  0.000E+00  0.000E+00  0.000E+00  1.07555E+03  1.909E+00  9.636E+00  7.227E-02  1.955E+00
   1    3    6     3     2    1.7175E+00  2.4905E-01   1.4684E+00  0.000E+00  0.000E+00  0.000E+00  1.07264E+03  1.727E+00  8.909E+00  6.682E-02  1.864E+00
   1    3    7     3     3    1.4684E+00  1.9718E-01   1.2712E+00  0.000E+00  0.000E+00  0.000E+00  1.06987E+03  1.555E+00  8.218E+00  5.547E-02  1.777E+00
   1    4    8     3     4    1.2712E+00  2.2567E-01   1.0456E+00  0.000E+00  0.000E+00  0.000E+00  1.06682E+03  1.364E+00  7.455E+00  6.709E-02  1.682E+00
   1    5    8     3     5    1.0456E+00  1.5790E-01   8.8768E-01  0.000E+00  0.000E+00  0.000E+00  1.06362E+03  1.164E+00  6.655E+00  4.991E-02  1.582E+00
   1    6    8     3     6    8.8768E-01  5.5980E-02   8.3170E-01  0.000E+00  0.000E+00  0.000E+00  1.06158E+03  1.036E+00  6.145E+00  1.844E-02  1.518E+00
   1    5   10     4     1    1.0000E+01  9.0919E-02   9.9091E+00  0.000E+00  0.000E+00  0.000E+00  1.07836E+03  6.368E-01  1.000E+01  2.500E-02  1.212E+00
   1    5    9     4     2    9.9091E+00  1.8158E-01   9.7275E+00  0.000E+00  0.000E+00  0.000E+00  1.07154E+03  6.315E-01  1.000E+01  5.000E-02  1.211E+00
   1    6    8     4     3    9.7275E+00  1.2689E-01   9.6006E+00  0.000E+00  0.000E+00  0.000E+00  1.06381E+03  6.256E-01  1.000E+01  3.500E-02  1.209E+00
   1    6    8     5     1    1.0432E+01  2.2686E-01   1.0205E+01  0.000E+00  0.000E+00  0.000E+00  1.05868E+03  6.790E-01  1.542E+01  6.166E-02  1.226E+00
   1    7    7     5     2    1.0205E+01  2.7894E-01   9.9265E+00  0.000E+00  0.000E+00  0.000E+00  1.05417E+03  6.732E-01  1.519E+01  7.594E-02  1.224E+00
   1    8    7     5     3    9.9265E+00  1.9221E-01   9.7343E+00  0.000E+00  0.000E+00  0.000E+00  1.04992E+03  6.676E-01  1.497E+01  5.241E-02  1.223E+00
   1    8    6     5     4    9.7343E+00  1.3577E-01   9.5985E+00  0.000E+00  0.000E+00  0.000E+00  1.04691E+03  6.637E-01  1.482E+01  3.706E-02  1.221E+00
   1    9    6     6     1    1.3736E+01  2.3089E-01   1.3506E+01  0.000E+00  0.000E+00  0.000E+00  1.04358E+03  8.482E-01  1.200E+01  6.000E-02  1.283E+00
   1   10    7     6     2    1.3506E+01  2.3037E-01   1.3275E+01  0.000E+00  0.000E+00  0.000E+00  1.03902E+03  8.396E-01  1.200E+01  6.000E-02  1.280E+00
   1   11    7     6     3    1.3275E+01  2.2985E-01   1.3045E+01  0.000E+00  0.000E+00  0.000E+00  1.03447E+03  8.309E-01  1.200E+01  6.000E-02  1.277E+00
   1   12    7     6     4    1.3045E+01  2.2933E-01   1.2816E+01  0.000E+00  0.000E+00  0.000E+00  1.02991E+03  8.221E-01  1.200E+01  6.000E-02  1.274E+00
   1   13    7     6     5    1.2816E+01  3.5376E-03   1.2812E+01  0.000E+00  0.000E+00  0.000E+00  1.02673E+03  8.177E-01  1.200E+01  2.400E-02  4.913E-02
   1   14    9     7     1    1.5000E+02  1.3942E+00   1.4861E+02  0.000E+00  0.000E+00  0.000E+00  1.03987E+03  2.288E+00  5.529E+01  5.593E-01  8.309E-01
   1   13    8     7     2    1.4861E+02  2.0019E+00   1.4660E+02  0.000E+00  0.000E+00  0.000E+00  1.03478E+03  2.279E+00  5.525E+01  6.147E-01  1.086E+00
   1   13    7     7     3    1.4660E+02  1.7357E+00   1.4487E+02  0.000E+00  0.000E+00  0.000E+00  1.02969E+03  2.269E+00  5.521E+01  5.584E-01  1.036E+00
   1   13    6     8     1    1.5768E+02  1.1101E+00   1.5657E+02  0.000E+00  0.000E+00  0.000E+00  1.02474E+03  2.866E+00  4.156E+01  4.235E-01  8.737E-01
   1   13    5     8     2    1.5657E+02  3.5782E-01   1.5621E+02  0.000E+00  0.000E+00  0.000E+00  1.01849E+03  2.861E+00  4.149E+01  4.228E-01  2.821E-01
   1   13    4     8     3    1.5621E+02 -1.8026E+00   1.5802E+02  0.000E+00  0.000E+00  0.000E+00  1.01224E+03  2.866E+00  4.156E+01  4.235E+00 -1.419E-01
   1   13    3     8     4    1.5802E+02 -3.3282E+00   1.6134E+02  0.000E+00  0.000E+00  0.000E+00  1.00601E+03  2.884E+00  4.181E+01  4.261E+00 -2.604E-01
   1   13    2     8     5    1.6134E+02 -2.4933E+00   1.6384E+02  0.000E+00  0.000E+00  0.000E+00  9.99778E+02  2.903E+00  4.210E+01  4.290E+00 -1.937E-01
   1   13    1     8     6    1.6384E+02 -1.9543E+00   1.6579E+02  0.000E+00  0.000E+00  0.000E+00  9.94793E+02  2.918E+00  4.231E+01  2.587E+00 -2.518E-01
   1    8    6     9     1    0.0000E+00  0.0000E+00   0.0000E+00  0.000E+00  0.000E+00  0.000E+00  1.07875E+03  0.000E+00  4.000E+00  0.000E+00  1.000E+00
   1    8    5     9     2    0.0000E+00  0.0000E+00   0.0000E+00  0.000E+00  0.000E+00  0.000E+00  1.07825E+03  0.000E+00  4.000E+00  0.000E+00  1.000E+00





UNSATURATED ZONE PACKAGE VOLUMETRIC BUDGET FOR  TIME STEP    30 STRESS PERIOD   48
  ------------------------------------------------------------------------------



     CUMULATIVE VOLUMES      L**3       RATES FOR THIS TIME STEP      L**3/T
     ------------------                 ------------------------

           IN:                                      IN:
           ---                                      ---
        INFILTRATION =  2128517509.6106          INFILTRATION =           4.4075

          OUT:                                     OUT:
          ----                                     ----
              UZF ET =  1984198435.2424                UZF ET =           0.7250
        UZF RECHARGE =     1239720.7563          UZF RECHARGE =       0.0000E+00

            IN - OUT =   143079353.6119              IN - OUT =           3.6825

          STORAGE:                                 STORAGE:
          --------                                 --------
      STORAGE CHANGE =   143079321.1386        STORAGE CHANGE =           3.6825

 PERCENT DISCREPANCY IS DIFFERENCE BETWEEN IN-OUT MINUS CHANGE IN STORAGE
 DIVIDED BY THE AVERAGE OF IN AND OUT TIMES 100

 PERCENT DISCREPANCY =           0.00     PERCENT DISCREPANCY =           0.00






1
  VOLUMETRIC BUDGET FOR AGRICULTURAL FIELDS AT  END OF TIME STEP   30, STRESS PERIOD  48
  ------------------------------------------------------------------------------

     CUMULATIVE VOLUMES      L**3       RATES FOR THIS TIME STEP      L**3/T
     ------------------                 ------------------------

           IN:                                      IN:
           ---                                      ---
               AG WELLS  =   837784448.0000                 AG WELLS  =           0.0000
      DIVERSION SEGMENTS =   745835200.0000        DIVERSION SEGMENTS =           0.0000
           GW IRRIGATION =           0.0000             GW IRRIGATION =           0.0000
           SW IRRIGATION =           0.0000             SW IRRIGATION =           0.0000
        SYSTEM LOSSES GW =           0.0000          SYSTEM LOSSES GW =           0.0000
        SYSTEM LOSSES SW =           0.0000          SYSTEM LOSSES SW =           0.0000

                TOTAL IN =  1583619584.0000                  TOTAL IN =           0.0000

          OUT:                                     OUT:
          ----                                     ----
               AG WELLS  =           0.0000                 AG WELLS  =           0.0000
      DIVERSION SEGMENTS =           0.0000        DIVERSION SEGMENTS =           0.0000
           GW IRRIGATION =   837784448.0000             GW IRRIGATION =           0.0000
           SW IRRIGATION =   745848640.0000             SW IRRIGATION =           0.0000
        SYSTEM LOSSES GW =           0.0000          SYSTEM LOSSES GW =           0.0000
        SYSTEM LOSSES SW =           0.0000          SYSTEM LOSSES SW =           0.0000

               TOTAL OUT =  1583633152.0000                 TOTAL OUT =           0.0000

                IN - OUT =      -13568.0000                  IN - OUT =           0.0000

     PERCENT DISCREPANCY =          -0.00         PERCENT DISCREPANCY =           0.00



1
  VOLUMETRIC BUDGET FOR ENTIRE MODEL AT END OF TIME STEP   30, STRESS PERIOD  48
  ------------------------------------------------------------------------------

     CUMULATIVE VOLUMES      L**3       RATES FOR THIS TIME STEP      L**3/T
     ------------------                 ------------------------

           IN:                                      IN:
           ---                                      ---
             STORAGE     =  1196894720.0000               STORAGE     =           5.6903
       CONSTANT HEAD     =           0.0000         CONSTANT HEAD     =           0.0000
     HEAD DEP BOUNDS     =    35693884.0000       HEAD DEP BOUNDS     =           0.2897
      STREAM LEAKAGE     =  1467221888.0000        STREAM LEAKAGE     =          11.6620
        UZF RECHARGE     =     1239721.0000          UZF RECHARGE     =           0.0000
               GW ET     =           0.0000                 GW ET     =           0.0000
     SURFACE LEAKAGE     =           0.0000       SURFACE LEAKAGE     =           0.0000
           AG WELLS      =           0.0000             AG WELLS      =           0.0000

                TOTAL IN =  2701050112.0000                  TOTAL IN =          17.6420

          OUT:                                     OUT:
          ----                                     ----
             STORAGE     =   588876736.0000               STORAGE     =           7.7767
       CONSTANT HEAD     =           0.0000         CONSTANT HEAD     =           0.0000
     HEAD DEP BOUNDS     =    35596300.0000       HEAD DEP BOUNDS     =           0.2868
      STREAM LEAKAGE     =  1238728448.0000        STREAM LEAKAGE     =           9.5784
        UZF RECHARGE     =           0.0000          UZF RECHARGE     =           0.0000
               GW ET     =           0.0000                 GW ET     =           0.0000
     SURFACE LEAKAGE     =           0.0000       SURFACE LEAKAGE     =           0.0000
           AG WELLS      =   837784448.0000             AG WELLS      =           0.0000

               TOTAL OUT =  2700985856.0000                 TOTAL OUT =          17.6420

                IN - OUT =       64256.0000                  IN - OUT =       9.5367E-06

     PERCENT DISCREPANCY =           0.00         PERCENT DISCREPANCY =           0.00






         TIME SUMMARY AT END OF TIME STEP   30 IN STRESS PERIOD   48
                    SECONDS     MINUTES      HOURS       DAYS        YEARS
                    -----------------------------------------------------------
   TIME STEP LENGTH  87667.      1461.1      24.352      1.0147     2.77799E-03
 STRESS PERIOD TIME 2.63000E+06  43833.      730.56      30.440     8.33397E-02
         TOTAL TIME 1.23695E+08 2.06158E+06  34360.      1431.7      3.9197    
1
1
                            STRESS PERIOD NO.   49, LENGTH =   2630000.    
                            -----------------------------------------------

                              NUMBER OF TIME STEPS =    30

                               MULTIPLIER FOR DELT =     1.000

                            INITIAL TIME STEP SIZE =   87666.66    

 REUSING NON-PARAMETER GHB CELLS FROM LAST STRESS PERIOD

      2 GHB CELLS

 REUSING STREAM SEGMENT DATA FROM LAST STRESS PERIOD



            AREAL INFILTRATION RATE
 READING ON UNIT   19 WITH FORMAT: (10F4.0)            

            1           2           3           4           5           6           7           8           9          10
 ........................................................................................................................
   1   1.2000E-09   0.000       0.000       0.000       0.000       0.000       0.000       0.000       0.000       0.000    
   2   2.1000E-09  2.0000E-09  8.0000E-10  8.5000E-09   0.000       0.000       0.000       0.000       0.000       0.000    
   3   5.0000E-10  1.1000E-09  8.8000E-09  5.5000E-09   0.000       0.000       0.000       0.000       0.000       0.000    
   4   8.5000E-09  1.1000E-09  1.1000E-09  1.1000E-09  2.0000E-09   0.000       0.000       0.000       0.000       0.000    
   5   8.5000E-09  1.1000E-09  1.1000E-09  1.1000E-09  1.1000E-09   0.000       0.000       0.000       0.000       0.000    
   6   8.5000E-09  5.2000E-09  2.1000E-09  1.1000E-09  1.5000E-09   0.000       0.000       0.000       0.000       0.000    
   7   8.5000E-09  5.2000E-09  2.1000E-09  1.2000E-09  2.0000E-09   0.000       0.000       0.000       0.000       0.000    
   8   5.0000E-10  5.2000E-09  2.1000E-09  1.2000E-09  5.0000E-09   0.000       0.000       0.000       0.000       0.000    
   9   5.0000E-10  5.2000E-09  2.1000E-09  1.2000E-09  5.0000E-09   0.000       0.000       0.000       0.000       0.000    
  10   5.0000E-10  5.2000E-09  2.1000E-09  1.2000E-09  5.8000E-09   0.000       0.000       0.000       0.000       0.000    
  11   1.0000E-10  1.1000E-09  1.1000E-09  1.2000E-09  5.0000E-09   0.000       0.000       0.000       0.000       0.000    
  12   1.1000E-09  1.1000E-09  1.1000E-09  1.1000E-09  2.0000E-09   0.000       0.000       0.000       0.000       0.000    
  13   1.1000E-09  2.2000E-09  2.2000E-09  2.1000E-09  1.0000E-09   0.000       0.000       0.000       0.000       0.000    
  14   2.0000E-10  5.5000E-09  5.5000E-09  5.2000E-09  1.0000E-09   0.000       0.000       0.000       0.000       0.000    
  15    0.000      8.8000E-09  8.8000E-09   0.000       0.000       0.000       0.000       0.000       0.000       0.000    

                  ET RATE =  5.000000E-10

 USING ET EXTINCTION DEPTH FROM PREVIOUS STRESS PERIOD. CURRENT PERIOD IS:      49

 USING EXTINCTION WATER CONTENT FROM PREVIOUS STRESS PERIOD. CURRENT PERIOD IS:      49

 USING AIR ENTRY PRESSURE FROM PREVIOUS STRESS PERIOD. CURRENT PERIOD IS:      49

 USING ROOT PRESSURE HEAD FROM PREVIOUS STRESS PERIOD. CURRENT PERIOD IS:      49

 USING ROOT ACTIVITY FROM PREVIOUS STRESS PERIOD. CURRENT PERIOD IS:      49

 PROCESSING AG STRESS PERIOD DATA

 READING AG STRESS PERIOD DATA

 READING IRRIGATION SEGMENT

 READING IRRIGATION WELL

 READING SUPPLEMENTAL WELL

 END PROCESSING AG STRESS PERIOD DATA OPTIONS
 
 SOLVING FOR HEAD 
                                                   Max.-Head-Change                         Max.-Flux-Residual
  Residual-Control   Outer-Iter.   Inner-Iter.     Column Row Layer    Maximum-Head-Change  Column Row Layer    Maximum-Flux-Residual          L2-NORM 
          0                 1           2             4    7     1       0.2263311909E-01       4    7    1         0.1191112467E+01      0.2526020324E+01
          0                 2           2             4    7     1      -0.2201596379E-02       4    7    1        -0.1191119962E+00      0.2526044895E+00
          0                 3           2             4    7     1       0.1499203970E-03       4    7    1         0.8337836237E-02      0.1767949527E-01
          0                 4           1             4    7     1      -0.5965473500E-05       4    7    1        -0.3410180184E-03      0.7230948681E-03

    ------------------------------------------------
       NWT REQUIRED            4 OUTER ITERATIONS 
       AND A TOTAL OF          7 INNER ITERATIONS.
    ------------------------------------------------

 NO OUTPUT CONTROL FOR STRESS PERIOD   49   TIME STEP    1
 
 SOLVING FOR HEAD 
                                                   Max.-Head-Change                         Max.-Flux-Residual
  Residual-Control   Outer-Iter.   Inner-Iter.     Column Row Layer    Maximum-Head-Change  Column Row Layer    Maximum-Flux-Residual          L2-NORM 
          0                 1           2             4    7     1       0.2234678347E-01       4    7    1         0.1175971753E+01      0.2499546399E+01
          0                 2           2             4    7     1      -0.2173744296E-02       4    7    1        -0.1175979057E+00      0.2500024981E+00
          0                 3           2             4    7     1       0.1480238220E-03       4    7    1         0.8231850049E-02      0.1750015581E-01
          0                 4           1             4    7     1      -0.5890006782E-05       4    7    1        -0.3366831570E-03      0.7157520040E-03

    ------------------------------------------------
       NWT REQUIRED            4 OUTER ITERATIONS 
       AND A TOTAL OF          7 INNER ITERATIONS.
    ------------------------------------------------

 NO OUTPUT CONTROL FOR STRESS PERIOD   49   TIME STEP    2
 
 SOLVING FOR HEAD 
                                                   Max.-Head-Change                         Max.-Flux-Residual
  Residual-Control   Outer-Iter.   Inner-Iter.     Column Row Layer    Maximum-Head-Change  Column Row Layer    Maximum-Flux-Residual          L2-NORM 
          0                 1           2             4    7     1       0.2206545674E-01       4    7    1         0.1161096331E+01      0.2473502331E+01
          0                 2           2             4    7     1      -0.2146377803E-02       4    7    1        -0.1161103450E+00      0.2473506216E+00
          0                 3           2             4    7     1       0.1461602677E-03       4    7    1         0.8127720916E-02      0.1731453162E-01
          0                 4           1             4    7     1      -0.5815854361E-05       4    7    1        -0.3324242734E-03      0.7081680564E-03

    ------------------------------------------------
       NWT REQUIRED            4 OUTER ITERATIONS 
       AND A TOTAL OF          7 INNER ITERATIONS.
    ------------------------------------------------

 NO OUTPUT CONTROL FOR STRESS PERIOD   49   TIME STEP    3
 
 SOLVING FOR HEAD 
                                                   Max.-Head-Change                         Max.-Flux-Residual
  Residual-Control   Outer-Iter.   Inner-Iter.     Column Row Layer    Maximum-Head-Change  Column Row Layer    Maximum-Flux-Residual          L2-NORM 
          0                 1           2             4    7     1       0.2178904072E-01       4    7    1         0.1146480697E+01      0.2448366400E+01
          0                 2           2             4    7     1      -0.2119489796E-02       4    7    1        -0.1146487636E+00      0.2448367445E+00
          0                 3           2             4    7     1       0.1443292970E-03       4    7    1         0.8025410358E-02      0.1713852815E-01
          0                 4           1             4    7     1      -0.5742998277E-05       4    7    1        -0.3282397688E-03      0.7009574567E-03

    ------------------------------------------------
       NWT REQUIRED            4 OUTER ITERATIONS 
       AND A TOTAL OF          7 INNER ITERATIONS.
    ------------------------------------------------

 NO OUTPUT CONTROL FOR STRESS PERIOD   49   TIME STEP    4
 
 SOLVING FOR HEAD 
                                                   Max.-Head-Change                         Max.-Flux-Residual
  Residual-Control   Outer-Iter.   Inner-Iter.     Column Row Layer    Maximum-Head-Change  Column Row Layer    Maximum-Flux-Residual          L2-NORM 
          0                 1           2             4    7     1       0.2151729746E-01       4    7    1         0.1132112330E+01      0.2423650699E+01
          0                 2           2             4    7     1      -0.2093056326E-02       4    7    1        -0.1132119093E+00      0.2423648049E+00
          0                 3           2             4    7     1       0.1425292781E-03       4    7    1         0.7924830664E-02      0.1696545980E-01
          0                 4           1             4    7     1      -0.5671373828E-05       4    7    1        -0.3241260524E-03      0.6940812722E-03

    ------------------------------------------------
       NWT REQUIRED            4 OUTER ITERATIONS 
       AND A TOTAL OF          7 INNER ITERATIONS.
    ------------------------------------------------

 NO OUTPUT CONTROL FOR STRESS PERIOD   49   TIME STEP    5
 
 SOLVING FOR HEAD 
                                                   Max.-Head-Change                         Max.-Flux-Residual
  Residual-Control   Outer-Iter.   Inner-Iter.     Column Row Layer    Maximum-Head-Change  Column Row Layer    Maximum-Flux-Residual          L2-NORM 
          0                 1           2             4    7     1       0.2125040408E-01       4    7    1         0.1118000844E+01      0.2398939011E+01
          0                 2           2             4    7     1      -0.2067094626E-02       4    7    1        -0.1118007437E+00      0.2398936611E+00
          0                 3           2             4    7     1       0.1407613854E-03       4    7    1         0.7826049205E-02      0.1679247950E-01
          0                 4           1             4    7     1      -0.5601027871E-05       4    7    1        -0.3200858969E-03      0.6868315701E-03

    ------------------------------------------------
       NWT REQUIRED            4 OUTER ITERATIONS 
       AND A TOTAL OF          7 INNER ITERATIONS.
    ------------------------------------------------

 NO OUTPUT CONTROL FOR STRESS PERIOD   49   TIME STEP    6
 
 SOLVING FOR HEAD 
                                                   Max.-Head-Change                         Max.-Flux-Residual
  Residual-Control   Outer-Iter.   Inner-Iter.     Column Row Layer    Maximum-Head-Change  Column Row Layer    Maximum-Flux-Residual          L2-NORM 
          0                 1           2             4    7     1       0.2098799257E-01       4    7    1         0.1104126209E+01      0.2374654054E+01
          0                 2           2             4    7     1      -0.2041568895E-02       4    7    1        -0.1104132636E+00      0.2374652003E+00
          0                 3           2             4    7     1       0.1390231802E-03       4    7    1         0.7728925714E-02      0.1662249130E-01
          0                 4           1             4    7     1      -0.5531862892E-05       4    7    1        -0.3161135351E-03      0.6798567845E-03

    ------------------------------------------------
       NWT REQUIRED            4 OUTER ITERATIONS 
       AND A TOTAL OF          7 INNER ITERATIONS.
    ------------------------------------------------

 NO OUTPUT CONTROL FOR STRESS PERIOD   49   TIME STEP    7
 
 SOLVING FOR HEAD 
                                                   Max.-Head-Change                         Max.-Flux-Residual
  Residual-Control   Outer-Iter.   Inner-Iter.     Column Row Layer    Maximum-Head-Change  Column Row Layer    Maximum-Flux-Residual          L2-NORM 
          0                 1           2             4    7     1       0.2073023936E-01       4    7    1         0.1090498560E+01      0.2350785317E+01
          0                 2           2             4    7     1      -0.2016496297E-02       4    7    1        -0.1090504825E+00      0.2350783352E+00
          0                 3           2             4    7     1       0.1373158315E-03       4    7    1         0.7633531145E-02      0.1645541919E-01
          0                 4           1             4    7     1      -0.5463926095E-05       4    7    1        -0.3122118992E-03      0.6730307713E-03

    ------------------------------------------------
       NWT REQUIRED            4 OUTER ITERATIONS 
       AND A TOTAL OF          7 INNER ITERATIONS.
    ------------------------------------------------

 NO OUTPUT CONTROL FOR STRESS PERIOD   49   TIME STEP    8
 
 SOLVING FOR HEAD 
                                                   Max.-Head-Change                         Max.-Flux-Residual
  Residual-Control   Outer-Iter.   Inner-Iter.     Column Row Layer    Maximum-Head-Change  Column Row Layer    Maximum-Flux-Residual          L2-NORM 
          0                 1           2             4    7     1       0.2047691218E-01       4    7    1         0.1077105132E+01      0.2327324928E+01
          0                 2           2             4    7     1      -0.1991854238E-02       4    7    1        -0.1077111240E+00      0.2327323107E+00
          0                 3           2             4    7     1       0.1356378006E-03       4    7    1         0.7539776151E-02      0.1629119877E-01
          0                 4           1             4    7     1      -0.5397155541E-05       4    7    1        -0.3083773036E-03      0.6662986626E-03

    ------------------------------------------------
       NWT REQUIRED            4 OUTER ITERATIONS 
       AND A TOTAL OF          7 INNER ITERATIONS.
    ------------------------------------------------

 NO OUTPUT CONTROL FOR STRESS PERIOD   49   TIME STEP    9
 
 SOLVING FOR HEAD 
                                                   Max.-Head-Change                         Max.-Flux-Residual
  Residual-Control   Outer-Iter.   Inner-Iter.     Column Row Layer    Maximum-Head-Change  Column Row Layer    Maximum-Flux-Residual          L2-NORM 
          0                 1           2             4    7     1       0.2022791754E-01       4    7    1         0.1063941186E+01      0.2304266291E+01
          0                 2           2             4    7     1      -0.1967633623E-02       4    7    1        -0.1063947142E+00      0.2304264718E+00
          0                 3           2             4    7     1       0.1339884688E-03       4    7    1         0.7447627580E-02      0.1612979916E-01
          0                 4           1             4    7     1      -0.5331526592E-05       4    7    1        -0.3046084053E-03      0.6597181316E-03

    ------------------------------------------------
       NWT REQUIRED            4 OUTER ITERATIONS 
       AND A TOTAL OF          7 INNER ITERATIONS.
    ------------------------------------------------

 NO OUTPUT CONTROL FOR STRESS PERIOD   49   TIME STEP   10
 
 SOLVING FOR HEAD 
                                                   Max.-Head-Change                         Max.-Flux-Residual
  Residual-Control   Outer-Iter.   Inner-Iter.     Column Row Layer    Maximum-Head-Change  Column Row Layer    Maximum-Flux-Residual          L2-NORM 
          0                 1           2             4    7     1       0.1998316589E-01       4    7    1         0.1051001875E+01      0.2281594808E+01
          0                 2           2             4    7     1      -0.1943825742E-02       4    7    1        -0.1051007683E+00      0.2281593247E+00
          0                 3           2             4    7     1       0.1323672425E-03       4    7    1         0.7357051461E-02      0.1597109632E-01
          0                 4           1             4    7     1      -0.5267016568E-05       4    7    1        -0.3009038446E-03      0.6532142367E-03

    ------------------------------------------------
       NWT REQUIRED            4 OUTER ITERATIONS 
       AND A TOTAL OF          7 INNER ITERATIONS.
    ------------------------------------------------

 NO OUTPUT CONTROL FOR STRESS PERIOD   49   TIME STEP   11
 
 SOLVING FOR HEAD 
                                                   Max.-Head-Change                         Max.-Flux-Residual
  Residual-Control   Outer-Iter.   Inner-Iter.     Column Row Layer    Maximum-Head-Change  Column Row Layer    Maximum-Flux-Residual          L2-NORM 
          0                 1           2             4    7     1       0.1974270475E-01       4    7    1         0.1038289863E+01      0.2259307372E+01
          0                 2           2             4    7     1      -0.1920435216E-02       4    7    1        -0.1038295526E+00      0.2259305734E+00
          0                 3           2             4    7     1       0.1307744363E-03       4    7    1         0.7268066453E-02      0.1581507594E-01
          0                 4           1             4    7     1      -0.5203637212E-05       4    7    1        -0.2972643415E-03      0.6468399205E-03

    ------------------------------------------------
       NWT REQUIRED            4 OUTER ITERATIONS 
       AND A TOTAL OF          7 INNER ITERATIONS.
    ------------------------------------------------

 NO OUTPUT CONTROL FOR STRESS PERIOD   49   TIME STEP   12
 
 SOLVING FOR HEAD 
                                                   Max.-Head-Change                         Max.-Flux-Residual
  Residual-Control   Outer-Iter.   Inner-Iter.     Column Row Layer    Maximum-Head-Change  Column Row Layer    Maximum-Flux-Residual          L2-NORM 
          0                 1           2             4    7     1       0.1950630767E-01       4    7    1         0.1025793000E+01      0.2237398037E+01
          0                 2           2             4    7     1      -0.1897440018E-02       4    7    1        -0.1025798523E+00      0.2237395477E+00
          0                 3           2             4    7     1       0.1292085511E-03       4    7    1         0.7180587539E-02      0.1566172013E-01
          0                 4           1             4    7     1      -0.5141329694E-05       4    7    1        -0.2936864726E-03      0.6405632022E-03

    ------------------------------------------------
       NWT REQUIRED            4 OUTER ITERATIONS 
       AND A TOTAL OF          7 INNER ITERATIONS.
    ------------------------------------------------

 NO OUTPUT CONTROL FOR STRESS PERIOD   49   TIME STEP   13
 
 SOLVING FOR HEAD 
                                                   Max.-Head-Change                         Max.-Flux-Residual
  Residual-Control   Outer-Iter.   Inner-Iter.     Column Row Layer    Maximum-Head-Change  Column Row Layer    Maximum-Flux-Residual          L2-NORM 
          0                 1           2             4    7     1       0.1927388947E-01       4    7    1         0.1013506853E+01      0.2215846502E+01
          0                 2           2             4    7     1      -0.1874831862E-02       4    7    1        -0.1013512238E+00      0.2215845141E+00
          0                 3           2             4    7     1       0.1276690214E-03       4    7    1         0.7094583639E-02      0.1551086195E-01
          0                 4           1             4    7     1      -0.5080070413E-05       4    7    1        -0.2901689040E-03      0.6343949660E-03

    ------------------------------------------------
       NWT REQUIRED            4 OUTER ITERATIONS 
       AND A TOTAL OF          7 INNER ITERATIONS.
    ------------------------------------------------

 NO OUTPUT CONTROL FOR STRESS PERIOD   49   TIME STEP   14
 
 SOLVING FOR HEAD 
                                                   Max.-Head-Change                         Max.-Flux-Residual
  Residual-Control   Outer-Iter.   Inner-Iter.     Column Row Layer    Maximum-Head-Change  Column Row Layer    Maximum-Flux-Residual          L2-NORM 
          0                 1           2             4    7     1       0.1904550072E-01       4    7    1         0.1001434310E+01      0.2194658452E+01
          0                 2           2             4    7     1      -0.1852615668E-02       4    7    1        -0.1001439563E+00      0.2194657122E+00
          0                 3           1             4    7     1       0.1261561860E-03       4    7    1         0.7010074999E-02      0.1536237895E-01
          0                 4           1             4    7     1      -0.5019876293E-05       4    7    1        -0.2867124940E-03      0.6292963169E-03

    ------------------------------------------------
       NWT REQUIRED            4 OUTER ITERATIONS 
       AND A TOTAL OF          6 INNER ITERATIONS.
    ------------------------------------------------

 NO OUTPUT CONTROL FOR STRESS PERIOD   49   TIME STEP   15
 
 SOLVING FOR HEAD 
                                                   Max.-Head-Change                         Max.-Flux-Residual
  Residual-Control   Outer-Iter.   Inner-Iter.     Column Row Layer    Maximum-Head-Change  Column Row Layer    Maximum-Flux-Residual          L2-NORM 
          0                 1           2             4    7     1       0.1882105589E-01       4    7    1         0.9895706890E+00      0.2173818795E+01
          0                 2           2             4    7     1      -0.1830783115E-02       4    7    1        -0.9895758122E-01      0.2173817443E+00
          0                 3           1             4    7     1       0.1246694718E-03       4    7    1         0.6927028829E-02      0.1521667774E-01
          0                 4           1             4    7     1      -0.4960718436E-05       4    7    1        -0.2833158965E-03      0.6223671863E-03

    ------------------------------------------------
       NWT REQUIRED            4 OUTER ITERATIONS 
       AND A TOTAL OF          6 INNER ITERATIONS.
    ------------------------------------------------

 NO OUTPUT CONTROL FOR STRESS PERIOD   49   TIME STEP   16
 
 SOLVING FOR HEAD 
                                                   Max.-Head-Change                         Max.-Flux-Residual
  Residual-Control   Outer-Iter.   Inner-Iter.     Column Row Layer    Maximum-Head-Change  Column Row Layer    Maximum-Flux-Residual          L2-NORM 
          0                 1           2             4    7     1       0.1860033137E-01       4    7    1         0.9779042465E+00      0.2153313604E+01
          0                 2           2             4    7     1      -0.1809312451E-02       4    7    1        -0.9779092439E-01      0.2153312201E+00
          0                 3           1             4    7     1       0.1232074011E-03       4    7    1         0.6845362935E-02      0.1507314220E-01
          0                 4           1             4    7     1      -0.4902541351E-05       4    7    1        -0.2799757590E-03      0.6164902005E-03

    ------------------------------------------------
       NWT REQUIRED            4 OUTER ITERATIONS 
       AND A TOTAL OF          6 INNER ITERATIONS.
    ------------------------------------------------

 NO OUTPUT CONTROL FOR STRESS PERIOD   49   TIME STEP   17
 
 SOLVING FOR HEAD 
                                                   Max.-Head-Change                         Max.-Flux-Residual
  Residual-Control   Outer-Iter.   Inner-Iter.     Column Row Layer    Maximum-Head-Change  Column Row Layer    Maximum-Flux-Residual          L2-NORM 
          0                 1           2             4    7     1       0.1838338689E-01       4    7    1         0.9664380038E+00      0.2133150766E+01
          0                 2           2             4    7     1      -0.1788209488E-02       4    7    1        -0.9664428788E-01      0.2133149487E+00
          0                 3           1             4    7     1       0.1217703694E-03       4    7    1         0.6765098467E-02      0.1493200525E-01
          0                 4           1             4    7     1      -0.4845360465E-05       4    7    1        -0.2766929420E-03      0.6107183137E-03

    ------------------------------------------------
       NWT REQUIRED            4 OUTER ITERATIONS 
       AND A TOTAL OF          6 INNER ITERATIONS.
    ------------------------------------------------

 NO OUTPUT CONTROL FOR STRESS PERIOD   49   TIME STEP   18
 
 SOLVING FOR HEAD 
                                                   Max.-Head-Change                         Max.-Flux-Residual
  Residual-Control   Outer-Iter.   Inner-Iter.     Column Row Layer    Maximum-Head-Change  Column Row Layer    Maximum-Flux-Residual          L2-NORM 
          0                 1           2             4    7     1       0.1817013805E-01       4    7    1         0.9551677506E+00      0.2113309866E+01
          0                 2           2             4    7     1      -0.1767466015E-02       4    7    1        -0.9551725066E-01      0.2113308566E+00
          0                 3           1             4    7     1       0.1203578171E-03       4    7    1         0.6686205926E-02      0.1479311583E-01
          0                 4           1             4    7     1      -0.4789153559E-05       4    7    1        -0.2734662148E-03      0.6050385685E-03

    ------------------------------------------------
       NWT REQUIRED            4 OUTER ITERATIONS 
       AND A TOTAL OF          6 INNER ITERATIONS.
    ------------------------------------------------

 NO OUTPUT CONTROL FOR STRESS PERIOD   49   TIME STEP   19
 
 SOLVING FOR HEAD 
                                                   Max.-Head-Change                         Max.-Flux-Residual
  Residual-Control   Outer-Iter.   Inner-Iter.     Column Row Layer    Maximum-Head-Change  Column Row Layer    Maximum-Flux-Residual          L2-NORM 
          0                 1           2             4    7     1       0.1796050980E-01       4    7    1         0.9440891105E+00      0.2093798310E+01
          0                 2           2             4    7     1      -0.1747074731E-02       4    7    1        -0.9440937508E-01      0.2093796977E+00
          0                 3           1             4    7     1       0.1189692483E-03       4    7    1         0.6608654729E-02      0.1465653760E-01
          0                 4           1             4    7     1      -0.4733901060E-05       4    7    1        -0.2702943721E-03      0.5994545950E-03

    ------------------------------------------------
       NWT REQUIRED            4 OUTER ITERATIONS 
       AND A TOTAL OF          6 INNER ITERATIONS.
    ------------------------------------------------

 NO OUTPUT CONTROL FOR STRESS PERIOD   49   TIME STEP   20
 
 SOLVING FOR HEAD 
                                                   Max.-Head-Change                         Max.-Flux-Residual
  Residual-Control   Outer-Iter.   Inner-Iter.     Column Row Layer    Maximum-Head-Change  Column Row Layer    Maximum-Flux-Residual          L2-NORM 
          0                 1           2             4    7     1       0.1775428506E-01       4    7    1         0.9331908840E+00      0.2074591767E+01
          0                 2           2             4    7     1      -0.1727014520E-02       4    7    1        -0.9331954116E-01      0.2074590383E+00
          0                 3           1             4    7     1       0.1176032236E-03       4    7    1         0.6532366420E-02      0.1452209947E-01
          0                 4           1             4    7     1      -0.4679545521E-05       4    7    1        -0.2671741718E-03      0.5939571357E-03

    ------------------------------------------------
       NWT REQUIRED            4 OUTER ITERATIONS 
       AND A TOTAL OF          6 INNER ITERATIONS.
    ------------------------------------------------

 NO OUTPUT CONTROL FOR STRESS PERIOD   49   TIME STEP   21
 
 SOLVING FOR HEAD 
                                                   Max.-Head-Change                         Max.-Flux-Residual
  Residual-Control   Outer-Iter.   Inner-Iter.     Column Row Layer    Maximum-Head-Change  Column Row Layer    Maximum-Flux-Residual          L2-NORM 
          0                 1           2             4    7     1       0.1755166055E-01       4    7    1         0.9224837414E+00      0.2055687720E+01
          0                 2           2             4    7     1      -0.1707304519E-02       4    7    1        -0.9224881598E-01      0.2055686333E+00
          0                 3           1             4    7     1       0.1162610474E-03       4    7    1         0.6457415726E-02      0.1438976178E-01
          0                 4           1             4    7     1      -0.4626139554E-05       4    7    1        -0.2641086908E-03      0.5885609967E-03

    ------------------------------------------------
       NWT REQUIRED            4 OUTER ITERATIONS 
       AND A TOTAL OF          6 INNER ITERATIONS.
    ------------------------------------------------

 NO OUTPUT CONTROL FOR STRESS PERIOD   49   TIME STEP   22
 
 SOLVING FOR HEAD 
                                                   Max.-Head-Change                         Max.-Flux-Residual
  Residual-Control   Outer-Iter.   Inner-Iter.     Column Row Layer    Maximum-Head-Change  Column Row Layer    Maximum-Flux-Residual          L2-NORM 
          0                 1           2             4    7     1       0.1735228778E-01       4    7    1         0.9119486483E+00      0.2037088485E+01
          0                 2           2             4    7     1      -0.1687910827E-02       4    7    1        -0.9119529600E-01      0.2037087127E+00
          0                 3           1             4    7     1       0.1149404104E-03       4    7    1         0.6383669399E-02      0.1425956766E-01
          0                 4           1             4    7     1      -0.4573589791E-05       4    7    1        -0.2610924635E-03      0.5832150590E-03

    ------------------------------------------------
       NWT REQUIRED            4 OUTER ITERATIONS 
       AND A TOTAL OF          6 INNER ITERATIONS.
    ------------------------------------------------

 NO OUTPUT CONTROL FOR STRESS PERIOD   49   TIME STEP   23
 
 SOLVING FOR HEAD 
                                                   Max.-Head-Change                         Max.-Flux-Residual
  Residual-Control   Outer-Iter.   Inner-Iter.     Column Row Layer    Maximum-Head-Change  Column Row Layer    Maximum-Flux-Residual          L2-NORM 
          0                 1           2             4    7     1       0.1715636927E-01       4    7    1         0.9015967710E+00      0.2018785958E+01
          0                 2           2             4    7     1      -0.1668853145E-02       4    7    1        -0.9016009791E-01      0.2018784588E+00
          0                 3           1             4    7     1       0.1136426545E-03       4    7    1         0.6311205605E-02      0.1413146310E-01
          0                 4           1             4    7     1      -0.4521950803E-05       4    7    1        -0.2581286885E-03      0.5779788098E-03

    ------------------------------------------------
       NWT REQUIRED            4 OUTER ITERATIONS 
       AND A TOTAL OF          6 INNER ITERATIONS.
    ------------------------------------------------

 NO OUTPUT CONTROL FOR STRESS PERIOD   49   TIME STEP   24
 
 SOLVING FOR HEAD 
                                                   Max.-Head-Change                         Max.-Flux-Residual
  Residual-Control   Outer-Iter.   Inner-Iter.     Column Row Layer    Maximum-Head-Change  Column Row Layer    Maximum-Flux-Residual          L2-NORM 
          0                 1           2             4    7     1       0.1696355639E-01       4    7    1         0.8914093727E+00      0.2000766070E+01
          0                 2           2             4    7     1      -0.1650097560E-02       4    7    1        -0.8914134800E-01      0.2000764574E+00
          0                 3           1             4    7     1       0.1123654700E-03       4    7    1         0.6239893171E-02      0.1400530512E-01
          0                 4           1             4    7     1      -0.4471130487E-05       4    7    1        -0.2552120036E-03      0.5728158523E-03

    ------------------------------------------------
       NWT REQUIRED            4 OUTER ITERATIONS 
       AND A TOTAL OF          6 INNER ITERATIONS.
    ------------------------------------------------

 NO OUTPUT CONTROL FOR STRESS PERIOD   49   TIME STEP   25
 
 SOLVING FOR HEAD 
                                                   Max.-Head-Change                         Max.-Flux-Residual
  Residual-Control   Outer-Iter.   Inner-Iter.     Column Row Layer    Maximum-Head-Change  Column Row Layer    Maximum-Flux-Residual          L2-NORM 
          0                 1           2             4    7     1       0.1677405546E-01       4    7    1         0.8813976161E+00      0.1983028763E+01
          0                 2           2             4    7     1      -0.1631664142E-02       4    7    1        -0.8814016253E-01      0.1983027136E+00
          0                 3           1             4    7     1       0.1111102242E-03       4    7    1         0.6169810260E-02      0.1388116216E-01
          0                 4           1             4    7     1      -0.4421183298E-05       4    7    1        -0.2523456114E-03      0.5677437206E-03

    ------------------------------------------------
       NWT REQUIRED            4 OUTER ITERATIONS 
       AND A TOTAL OF          6 INNER ITERATIONS.
    ------------------------------------------------

 NO OUTPUT CONTROL FOR STRESS PERIOD   49   TIME STEP   26
 
 SOLVING FOR HEAD 
                                                   Max.-Head-Change                         Max.-Flux-Residual
  Residual-Control   Outer-Iter.   Inner-Iter.     Column Row Layer    Maximum-Head-Change  Column Row Layer    Maximum-Flux-Residual          L2-NORM 
          0                 1           2             4    7     1       0.1658676970E-01       4    7    1         0.8715502699E+00      0.1976236185E+01
          0                 2           2             4    7     1      -0.1613446210E-02       4    7    1        -0.8715541945E-01      0.1975922644E+00
          0                 3           1             4    7     1       0.1098696499E-03       4    7    1         0.6100878284E-02      0.1382842264E-01
          0                 4           1             4    7     1      -0.4371817734E-05       4    7    1        -0.2495262920E-03      0.5654353261E-03

    ------------------------------------------------
       NWT REQUIRED            4 OUTER ITERATIONS 
       AND A TOTAL OF          6 INNER ITERATIONS.
    ------------------------------------------------

 NO OUTPUT CONTROL FOR STRESS PERIOD   49   TIME STEP   27
 
 SOLVING FOR HEAD 
                                                   Max.-Head-Change                         Max.-Flux-Residual
  Residual-Control   Outer-Iter.   Inner-Iter.     Column Row Layer    Maximum-Head-Change  Column Row Layer    Maximum-Flux-Residual          L2-NORM 
          0                 1           2             4    7     1       0.1640258575E-01       4    7    1         0.8618177755E+00      0.1948730121E+01
          0                 2           2             4    7     1      -0.1595549193E-02       4    7    1        -0.8618216062E-01      0.1969897000E+00
          0                 3           1             4    7     1       0.1086509320E-03       4    7    1         0.6032750231E-02      0.1378926151E-01
          0                 4           1             4    7     1      -0.4323325298E-05       4    7    1        -0.2467398399E-03      0.5639865273E-03

    ------------------------------------------------
       NWT REQUIRED            4 OUTER ITERATIONS 
       AND A TOTAL OF          6 INNER ITERATIONS.
    ------------------------------------------------

 NO OUTPUT CONTROL FOR STRESS PERIOD   49   TIME STEP   28
 
 SOLVING FOR HEAD 
                                                   Max.-Head-Change                         Max.-Flux-Residual
  Residual-Control   Outer-Iter.   Inner-Iter.     Column Row Layer    Maximum-Head-Change  Column Row Layer    Maximum-Flux-Residual          L2-NORM 
          0                 1           2             4    7     1       0.1622132198E-01       4    7    1         0.8522450824E+00      0.1931855935E+01
          0                 2           2             4    7     1      -0.1577897860E-02       4    7    1        -0.8522488238E-01      0.1931853053E+00
          0                 3           1             4    7     1       0.1074489434E-03       4    7    1         0.5965740801E-02      0.1352292063E-01
          0                 4           1             4    7     1      -0.4275497609E-05       4    7    1        -0.2439991604E-03      0.5530913986E-03

    ------------------------------------------------
       NWT REQUIRED            4 OUTER ITERATIONS 
       AND A TOTAL OF          6 INNER ITERATIONS.
    ------------------------------------------------

 NO OUTPUT CONTROL FOR STRESS PERIOD   49   TIME STEP   29
 
 SOLVING FOR HEAD 
                                                   Max.-Head-Change                         Max.-Flux-Residual
  Residual-Control   Outer-Iter.   Inner-Iter.     Column Row Layer    Maximum-Head-Change  Column Row Layer    Maximum-Flux-Residual          L2-NORM 
          0                 1           2             4    7     1       0.1604311637E-01       4    7    1         0.8428331528E+00      0.1915110955E+01
          0                 2           2             4    7     1      -0.1560563183E-02       4    7    1        -0.8428368068E-01      0.1915108085E+00
          0                 3           1             4    7     1       0.1062685175E-03       4    7    1         0.5899856732E-02      0.1340570308E-01
          0                 4           1             4    7     1      -0.4228527275E-05       4    7    1        -0.2413045072E-03      0.5483299315E-03

    ------------------------------------------------
       NWT REQUIRED            4 OUTER ITERATIONS 
       AND A TOTAL OF          6 INNER ITERATIONS.
    ------------------------------------------------

 NO OUTPUT CONTROL FOR STRESS PERIOD   49   TIME STEP   30



 STREAM LISTING     PERIOD     49   STEP       30

 LAYER ROW COL. STREAM  RCH.  FLOW INTO     FLOW TO   FLOW OUT OF   OVRLND.     DIRECT     STREAM       STREAM     STREAM     STREAM   STREAMBED  STREAMBED
                SEG.NO.  NO.  STRM. RCH.    AQUIFER    STRM. RCH.    RUNOFF     PRECIP       ET          HEAD       DEPTH      WIDTH   CONDCTNC.   GRADIENT

   1    1    1     1     1    7.1250E+00  1.2038E-01   7.0046E+00  0.000E+00  0.000E+00  0.000E+00  1.09385E+03  8.024E-01  7.035E+00  3.166E-02  1.267E+00
   1    2    2     1     2    7.0046E+00  1.8492E-01   6.8197E+00  0.000E+00  0.000E+00  0.000E+00  1.08886E+03  7.976E-01  6.956E+00  4.869E-02  1.266E+00
   1    3    3     1     3    6.8197E+00  1.5635E-01   6.6634E+00  0.000E+00  0.000E+00  0.000E+00  1.08321E+03  7.929E-01  6.870E+00  4.122E-02  1.264E+00
   1    3    4     1     4    6.6634E+00  1.4286E-01   6.5205E+00  0.000E+00  0.000E+00  0.000E+00  1.07820E+03  7.886E-01  6.794E+00  3.771E-02  1.263E+00
   1    4    5     2     1    4.5205E+00  2.6715E-01   4.2533E+00  0.000E+00  0.000E+00  0.000E+00  1.07236E+03  4.251E-01  1.200E+01  7.800E-02  1.142E+00
   1    5    6     2     2    4.2533E+00  2.0467E-01   4.0487E+00  0.000E+00  0.000E+00  0.000E+00  1.06692E+03  4.112E-01  1.200E+01  6.000E-02  1.137E+00
   1    6    6     2     3    4.0487E+00  2.0394E-01   3.8447E+00  0.000E+00  0.000E+00  0.000E+00  1.06219E+03  3.989E-01  1.200E+01  6.000E-02  1.133E+00
   1    7    6     2     4    3.8447E+00  2.0319E-01   3.6416E+00  0.000E+00  0.000E+00  0.000E+00  1.05746E+03  3.864E-01  1.200E+01  6.000E-02  1.129E+00
   1    8    6     2     5    3.6416E+00  2.0242E-01   3.4391E+00  0.000E+00  0.000E+00  0.000E+00  1.05273E+03  3.737E-01  1.200E+01  6.000E-02  1.125E+00
   1    3    5     3     1    2.0000E+00  2.8252E-01   1.7175E+00  0.000E+00  0.000E+00  0.000E+00  1.07555E+03  1.909E+00  9.636E+00  7.227E-02  1.955E+00
   1    3    6     3     2    1.7175E+00  2.4905E-01   1.4684E+00  0.000E+00  0.000E+00  0.000E+00  1.07264E+03  1.727E+00  8.909E+00  6.682E-02  1.864E+00
   1    3    7     3     3    1.4684E+00  1.9718E-01   1.2712E+00  0.000E+00  0.000E+00  0.000E+00  1.06987E+03  1.555E+00  8.218E+00  5.547E-02  1.777E+00
   1    4    8     3     4    1.2712E+00  2.2567E-01   1.0456E+00  0.000E+00  0.000E+00  0.000E+00  1.06682E+03  1.364E+00  7.455E+00  6.709E-02  1.682E+00
   1    5    8     3     5    1.0456E+00  1.5790E-01   8.8768E-01  0.000E+00  0.000E+00  0.000E+00  1.06362E+03  1.164E+00  6.655E+00  4.991E-02  1.582E+00
   1    6    8     3     6    8.8768E-01  5.5980E-02   8.3170E-01  0.000E+00  0.000E+00  0.000E+00  1.06158E+03  1.036E+00  6.145E+00  1.844E-02  1.518E+00
   1    5   10     4     1    1.0000E+01  9.0919E-02   9.9091E+00  0.000E+00  0.000E+00  0.000E+00  1.07836E+03  6.368E-01  1.000E+01  2.500E-02  1.212E+00
   1    5    9     4     2    9.9091E+00  1.8158E-01   9.7275E+00  0.000E+00  0.000E+00  0.000E+00  1.07154E+03  6.315E-01  1.000E+01  5.000E-02  1.211E+00
   1    6    8     4     3    9.7275E+00  1.2689E-01   9.6006E+00  0.000E+00  0.000E+00  0.000E+00  1.06381E+03  6.256E-01  1.000E+01  3.500E-02  1.209E+00
   1    6    8     5     1    1.0432E+01  2.2686E-01   1.0205E+01  0.000E+00  0.000E+00  0.000E+00  1.05868E+03  6.790E-01  1.542E+01  6.166E-02  1.226E+00
   1    7    7     5     2    1.0205E+01  2.7894E-01   9.9265E+00  0.000E+00  0.000E+00  0.000E+00  1.05417E+03  6.732E-01  1.519E+01  7.594E-02  1.224E+00
   1    8    7     5     3    9.9265E+00  1.9221E-01   9.7343E+00  0.000E+00  0.000E+00  0.000E+00  1.04992E+03  6.676E-01  1.497E+01  5.241E-02  1.223E+00
   1    8    6     5     4    9.7343E+00  1.3577E-01   9.5985E+00  0.000E+00  0.000E+00  0.000E+00  1.04691E+03  6.637E-01  1.482E+01  3.706E-02  1.221E+00
   1    9    6     6     1    1.3038E+01  2.2931E-01   1.2808E+01  0.000E+00  0.000E+00  0.000E+00  1.04355E+03  8.218E-01  1.200E+01  6.000E-02  1.274E+00
   1   10    7     6     2    1.2808E+01  2.2878E-01   1.2580E+01  0.000E+00  0.000E+00  0.000E+00  1.03899E+03  8.131E-01  1.200E+01  6.000E-02  1.271E+00
   1   11    7     6     3    1.2580E+01  2.2826E-01   1.2351E+01  0.000E+00  0.000E+00  0.000E+00  1.03444E+03  8.043E-01  1.200E+01  6.000E-02  1.268E+00
   1   12    7     6     4    1.2351E+01  2.2772E-01   1.2124E+01  0.000E+00  0.000E+00  0.000E+00  1.02989E+03  7.954E-01  1.200E+01  6.000E-02  1.265E+00
   1   13    7     6     5    1.2124E+01  3.1192E-03   1.2120E+01  0.000E+00  0.000E+00  0.000E+00  1.02670E+03  7.909E-01  1.200E+01  2.400E-02  4.332E-02
   1   14    9     7     1    1.5000E+02  1.3950E+00   1.4861E+02  0.000E+00  0.000E+00  0.000E+00  1.03987E+03  2.288E+00  5.529E+01  5.593E-01  8.314E-01
   1   13    8     7     2    1.4861E+02  2.0041E+00   1.4660E+02  0.000E+00  0.000E+00  0.000E+00  1.03478E+03  2.279E+00  5.525E+01  6.147E-01  1.087E+00
   1   13    7     7     3    1.4660E+02  1.7409E+00   1.4486E+02  0.000E+00  0.000E+00  0.000E+00  1.02969E+03  2.269E+00  5.521E+01  5.584E-01  1.039E+00
   1   13    6     8     1    1.5698E+02  1.1125E+00   1.5587E+02  0.000E+00  0.000E+00  0.000E+00  1.02474E+03  2.861E+00  4.149E+01  4.228E-01  8.770E-01
   1   13    5     8     2    1.5587E+02  3.6188E-01   1.5551E+02  0.000E+00  0.000E+00  0.000E+00  1.01848E+03  2.856E+00  4.142E+01  4.221E-01  2.858E-01
   1   13    4     8     3    1.5551E+02 -1.7840E+00   1.5729E+02  0.000E+00  0.000E+00  0.000E+00  1.01224E+03  2.861E+00  4.149E+01  4.228E+00 -1.407E-01
   1   13    3     8     4    1.5729E+02 -3.3213E+00   1.6061E+02  0.000E+00  0.000E+00  0.000E+00  1.00600E+03  2.879E+00  4.174E+01  4.254E+00 -2.603E-01
   1   13    2     8     5    1.6061E+02 -2.4959E+00   1.6311E+02  0.000E+00  0.000E+00  0.000E+00  9.99773E+02  2.898E+00  4.203E+01  4.283E+00 -1.943E-01
   1   13    1     8     6    1.6311E+02 -1.9595E+00   1.6507E+02  0.000E+00  0.000E+00  0.000E+00  9.94788E+02  2.913E+00  4.224E+01  2.583E+00 -2.529E-01
   1    8    6     9     1    0.0000E+00  0.0000E+00   0.0000E+00  0.000E+00  0.000E+00  0.000E+00  1.07875E+03  0.000E+00  4.000E+00  0.000E+00  1.000E+00
   1    8    5     9     2    0.0000E+00  0.0000E+00   0.0000E+00  0.000E+00  0.000E+00  0.000E+00  1.07825E+03  0.000E+00  4.000E+00  0.000E+00  1.000E+00





UNSATURATED ZONE PACKAGE VOLUMETRIC BUDGET FOR  TIME STEP    30 STRESS PERIOD   49
  ------------------------------------------------------------------------------



     CUMULATIVE VOLUMES      L**3       RATES FOR THIS TIME STEP      L**3/T
     ------------------                 ------------------------

           IN:                                      IN:
           ---                                      ---
        INFILTRATION =  2140109234.1687          INFILTRATION =           4.4075

          OUT:                                     OUT:
          ----                                     ----
              UZF ET =  1986105194.1088                UZF ET =           0.7250
        UZF RECHARGE =     1239720.7563          UZF RECHARGE =       0.0000E+00

            IN - OUT =   152764319.3037              IN - OUT =           3.6825

          STORAGE:                                 STORAGE:
          --------                                 --------
      STORAGE CHANGE =   152764286.4896        STORAGE CHANGE =           3.6825

 PERCENT DISCREPANCY IS DIFFERENCE BETWEEN IN-OUT MINUS CHANGE IN STORAGE
 DIVIDED BY THE AVERAGE OF IN AND OUT TIMES 100

 PERCENT DISCREPANCY =           0.00     PERCENT DISCREPANCY =           0.00






1
  VOLUMETRIC BUDGET FOR AGRICULTURAL FIELDS AT  END OF TIME STEP   30, STRESS PERIOD  49
  ------------------------------------------------------------------------------

     CUMULATIVE VOLUMES      L**3       RATES FOR THIS TIME STEP      L**3/T
     ------------------                 ------------------------

           IN:                                      IN:
           ---                                      ---
               AG WELLS  =   837784448.0000                 AG WELLS  =           0.0000
      DIVERSION SEGMENTS =   745835200.0000        DIVERSION SEGMENTS =           0.0000
           GW IRRIGATION =           0.0000             GW IRRIGATION =           0.0000
           SW IRRIGATION =           0.0000             SW IRRIGATION =           0.0000
        SYSTEM LOSSES GW =           0.0000          SYSTEM LOSSES GW =           0.0000
        SYSTEM LOSSES SW =           0.0000          SYSTEM LOSSES SW =           0.0000

                TOTAL IN =  1583619584.0000                  TOTAL IN =           0.0000

          OUT:                                     OUT:
          ----                                     ----
               AG WELLS  =           0.0000                 AG WELLS  =           0.0000
      DIVERSION SEGMENTS =           0.0000        DIVERSION SEGMENTS =           0.0000
           GW IRRIGATION =   837784448.0000             GW IRRIGATION =           0.0000
           SW IRRIGATION =   745848640.0000             SW IRRIGATION =           0.0000
        SYSTEM LOSSES GW =           0.0000          SYSTEM LOSSES GW =           0.0000
        SYSTEM LOSSES SW =           0.0000          SYSTEM LOSSES SW =           0.0000

               TOTAL OUT =  1583633152.0000                 TOTAL OUT =           0.0000

                IN - OUT =      -13568.0000                  IN - OUT =           0.0000

     PERCENT DISCREPANCY =          -0.00         PERCENT DISCREPANCY =           0.00



1
  VOLUMETRIC BUDGET FOR ENTIRE MODEL AT END OF TIME STEP   30, STRESS PERIOD  49
  ------------------------------------------------------------------------------

     CUMULATIVE VOLUMES      L**3       RATES FOR THIS TIME STEP      L**3/T
     ------------------                 ------------------------

           IN:                                      IN:
           ---                                      ---
             STORAGE     =  1210056832.0000               STORAGE     =           4.3832
       CONSTANT HEAD     =           0.0000         CONSTANT HEAD     =           0.0000
     HEAD DEP BOUNDS     =    36455948.0000       HEAD DEP BOUNDS     =           0.2898
      STREAM LEAKAGE     =  1497709440.0000        STREAM LEAKAGE     =          11.6188
        UZF RECHARGE     =     1239721.0000          UZF RECHARGE     =           0.0000
               GW ET     =           0.0000                 GW ET     =           0.0000
     SURFACE LEAKAGE     =           0.0000       SURFACE LEAKAGE     =           0.0000
           AG WELLS      =           0.0000             AG WELLS      =           0.0000

                TOTAL IN =  2745462016.0000                  TOTAL IN =          16.2918

          OUT:                                     OUT:
          ----                                     ----
             STORAGE     =   607326656.0000               STORAGE     =           6.4443
       CONSTANT HEAD     =           0.0000         CONSTANT HEAD     =           0.0000
     HEAD DEP BOUNDS     =    36350656.0000       HEAD DEP BOUNDS     =           0.2868
      STREAM LEAKAGE     =  1263936128.0000        STREAM LEAKAGE     =           9.5607
        UZF RECHARGE     =           0.0000          UZF RECHARGE     =           0.0000
               GW ET     =           0.0000                 GW ET     =           0.0000
     SURFACE LEAKAGE     =           0.0000       SURFACE LEAKAGE     =           0.0000
           AG WELLS      =   837784448.0000             AG WELLS      =           0.0000

               TOTAL OUT =  2745397760.0000                 TOTAL OUT =          16.2918

                IN - OUT =       64256.0000                  IN - OUT =       1.1444E-05

     PERCENT DISCREPANCY =           0.00         PERCENT DISCREPANCY =           0.00






         TIME SUMMARY AT END OF TIME STEP   30 IN STRESS PERIOD   49
                    SECONDS     MINUTES      HOURS       DAYS        YEARS
                    -----------------------------------------------------------
   TIME STEP LENGTH  87667.      1461.1      24.352      1.0147     2.77799E-03
 STRESS PERIOD TIME 2.63000E+06  43833.      730.56      30.440     8.33397E-02
         TOTAL TIME 1.26325E+08 2.10542E+06  35090.      1462.1      4.0030    
1


 Run end date and time (yyyy/mm/dd hh:mm:ss): 2020/03/12 13:40:59
 Elapsed run time:  4.102 Seconds

